 ****** HSPICE -- G-2012.06-SP1 64-BIT (Aug 27 2012) RHEL64 ******              
  Copyright (C) 2012 Synopsys, Inc. All Rights Reserved.                        
  Unpublished-rights reserved under US copyright laws.
  This program is protected by law and is subject to the
  terms and conditions of the license agreement from Synopsys.
  Use of this program is your acceptance to be bound by the
  license agreement. HSPICE is the trademark of Synopsys, Inc.
  Input File: ./sizing/spec1/circuit_behavior_1/3stage.sp                       
  Command line options: -C -i ./sizing/spec1/circuit_behavior_1/3stage.sp -o ./sizing/spec1/circuit_behavior_1/3stage
 Init: read install configuration file: /apps/EDAs/hspice2012.06-sp1/hspice/meta.cfg
1****** HSPICE -- G-2012.06-SP1 64-BIT (Aug 27 2012) RHEL64 ******              
 ******  
 .title project: three-stage opamp

  ******  circuit name directory
 circuit number to circuit name directory
   number circuitname                     definition         multiplier
        0 main circuit
        1 xac.                            opamp              1.00 
  
      
 *****************************************************************
 ******  option summary
 ******
 runlvl  = 3         bypass  = 2         
  Opening plot unit= 15
 file=./sizing/spec1/circuit_behavior_1/3stage.pa0

1****** HSPICE -- G-2012.06-SP1 64-BIT (Aug 27 2012) RHEL64 ******              
 ******  
 .title project: three-stage opamp

  ******  operating point information tnom=  25.000 temp=  27.000 *****
 ***** operating point status is all       simulation time is     0.     
    node    =voltage      node    =voltage      node    =voltage

 +0:vin_ac  =   0.      0:vo_ac   =   0.      1:node1   =   0.     
 +1:node2   =   0.     


 **** voltage sources

 subckt             
 element  0:vin     
  volts      0.     
  current    0.     
  power      0.     

     total voltage source power dissipation=    0.            watts



 **** resistors

 subckt   xac        xac        xac        xac        xac       
 element  1:rprs_in_ 1:rprs_1_2 1:rprs_2_o 1:r_l      1:rprs_nod
  r value  183.1353k  237.9180k  883.8022k    1.0000x    4.9070x
  v drop     0.         0.         0.         0.         0.     
  current    0.         0.         0.         0.         0.     
  power      0.         0.         0.         0.         0.     


 **** voltage-controlled current sources


 subckt     xac        xac        xac        xac     
 element  1:g_in_1   1:g_1_2    1:g_2_out  1:g_node1_
  v drop     0.         0.         0.         0.     
  current    0.         0.         0.         0.     



 ***************************************************
   ******   pole/zero analysis  
  
  
    input =  0:vin          output = v(vo_ac)
  
       poles (rad/sec)                 poles ( hertz)
 real            imag            real            imag            
 -13.4913k       0.              -2.14721k       0.              
 -18.1929x       71.4123x        -2.89548x       11.3656x        
 -18.1929x       -71.4123x       -2.89548x       -11.3656x       
  
       zeros (rad/sec)                 zeros ( hertz)
 real            imag            real            imag            
 572.558x        0.              91.1255x        0.              
 -2.07486g       0.              -330.224x       0.              
  
  ***** constant factor = -9.20331x
 ******  
 .title project: three-stage opamp

  ******  ac analysis tnom=  25.000 temp=  27.000 *****
x

        freq    volt db    
                   vo_ac   
    1.00000     103.4768   
    1.02329     103.4768   
    1.04713     103.4768   
    1.07152     103.4768   
    1.09648     103.4768   
    1.12202     103.4768   
    1.14815     103.4768   
    1.17490     103.4768   
    1.20226     103.4768   
    1.23027     103.4768   
    1.25893     103.4768   
    1.28825     103.4768   
    1.31826     103.4768   
    1.34896     103.4768   
    1.38038     103.4768   
    1.41254     103.4768   
    1.44544     103.4768   
    1.47911     103.4768   
    1.51356     103.4768   
    1.54882     103.4768   
    1.58489     103.4768   
    1.62181     103.4768   
    1.65959     103.4768   
    1.69824     103.4768   
    1.73780     103.4768   
    1.77828     103.4768   
    1.81970     103.4768   
    1.86209     103.4768   
    1.90546     103.4768   
    1.94984     103.4768   
    1.99526     103.4768   
    2.04174     103.4768   
    2.08930     103.4768   
    2.13796     103.4768   
    2.18776     103.4768   
    2.23872     103.4768   
    2.29087     103.4768   
    2.34423     103.4768   
    2.39883     103.4768   
    2.45471     103.4768   
    2.51189     103.4768   
    2.57040     103.4768   
    2.63027     103.4768   
    2.69153     103.4768   
    2.75423     103.4768   
    2.81838     103.4768   
    2.88403     103.4768   
    2.95121     103.4768   
    3.01995     103.4768   
    3.09030     103.4768   
    3.16228     103.4768   
    3.23594     103.4768   
    3.31131     103.4768   
    3.38844     103.4768   
    3.46737     103.4768   
    3.54813     103.4768   
    3.63078     103.4768   
    3.71535     103.4768   
    3.80189     103.4768   
    3.89045     103.4768   
    3.98107     103.4768   
    4.07380     103.4768   
    4.16869     103.4768   
    4.26580     103.4768   
    4.36516     103.4768   
    4.46684     103.4768   
    4.57088     103.4768   
    4.67735     103.4768   
    4.78630     103.4768   
    4.89779     103.4768   
    5.01187     103.4768   
    5.12861     103.4768   
    5.24807     103.4768   
    5.37032     103.4768   
    5.49541     103.4768   
    5.62341     103.4768   
    5.75440     103.4768   
    5.88844     103.4768   
    6.02560     103.4768   
    6.16595     103.4768   
    6.30957     103.4768   
    6.45654     103.4768   
    6.60693     103.4768   
    6.76083     103.4768   
    6.91831     103.4768   
    7.07946     103.4768   
    7.24436     103.4768   
    7.41310     103.4768   
    7.58578     103.4768   
    7.76247     103.4768   
    7.94328     103.4768   
    8.12831     103.4768   
    8.31764     103.4768   
    8.51138     103.4768   
    8.70964     103.4768   
    8.91251     103.4768   
    9.12011     103.4768   
    9.33254     103.4768   
    9.54993     103.4768   
    9.77237     103.4768   
   10.00000     103.4767   
   10.23293     103.4767   
   10.47129     103.4767   
   10.71519     103.4767   
   10.96478     103.4767   
   11.22018     103.4767   
   11.48154     103.4767   
   11.74898     103.4767   
   12.02264     103.4767   
   12.30269     103.4767   
   12.58925     103.4767   
   12.88250     103.4767   
   13.18257     103.4767   
   13.48963     103.4767   
   13.80384     103.4767   
   14.12538     103.4767   
   14.45440     103.4766   
   14.79108     103.4766   
   15.13561     103.4766   
   15.48817     103.4766   
   15.84893     103.4766   
   16.21810     103.4766   
   16.59587     103.4766   
   16.98244     103.4766   
   17.37801     103.4766   
   17.78279     103.4765   
   18.19701     103.4765   
   18.62087     103.4765   
   19.05461     103.4765   
   19.49845     103.4765   
   19.95262     103.4765   
   20.41738     103.4764   
   20.89296     103.4764   
   21.37962     103.4764   
   21.87762     103.4764   
   22.38721     103.4764   
   22.90868     103.4763   
   23.44229     103.4763   
   23.98833     103.4763   
   24.54709     103.4763   
   25.11886     103.4762   
   25.70396     103.4762   
   26.30268     103.4762   
   26.91535     103.4762   
   27.54229     103.4761   
   28.18383     103.4761   
   28.84032     103.4761   
   29.51209     103.4760   
   30.19952     103.4760   
   30.90295     103.4759   
   31.62278     103.4759   
   32.35937     103.4759   
   33.11311     103.4758   
   33.88442     103.4758   
   34.67369     103.4757   
   35.48134     103.4757   
   36.30781     103.4756   
   37.15352     103.4755   
   38.01894     103.4755   
   38.90451     103.4754   
   39.81072     103.4753   
   40.73803     103.4753   
   41.68694     103.4752   
   42.65795     103.4751   
   43.65158     103.4750   
   44.66836     103.4750   
   45.70882     103.4749   
   46.77351     103.4748   
   47.86301     103.4747   
   48.97788     103.4746   
   50.11872     103.4745   
   51.28614     103.4744   
   52.48075     103.4742   
   53.70318     103.4741   
   54.95409     103.4740   
   56.23413     103.4739   
   57.54399     103.4737   
   58.88437     103.4736   
   60.25596     103.4734   
   61.65950     103.4733   
   63.09573     103.4731   
   64.56542     103.4729   
   66.06934     103.4727   
   67.60830     103.4725   
   69.18310     103.4723   
   70.79458     103.4721   
   72.44360     103.4719   
   74.13102     103.4717   
   75.85776     103.4714   
   77.62471     103.4712   
   79.43282     103.4709   
   81.28305     103.4706   
   83.17638     103.4703   
   85.11380     103.4700   
   87.09636     103.4697   
   89.12509     103.4694   
   91.20108     103.4690   
   93.32543     103.4686   
   95.49926     103.4683   
   97.72372     103.4679   
  100.00000     103.4674   
  102.32930     103.4670   
  104.71285     103.4665   
  107.15193     103.4660   
  109.64782     103.4655   
  112.20185     103.4650   
  114.81536     103.4644   
  117.48976     103.4639   
  120.22644     103.4632   
  123.02688     103.4626   
  125.89254     103.4619   
  128.82496     103.4612   
  131.82567     103.4605   
  134.89629     103.4597   
  138.03843     103.4589   
  141.25375     103.4581   
  144.54398     103.4572   
  147.91084     103.4563   
  151.35612     103.4553   
  154.88166     103.4543   
  158.48932     103.4532   
  162.18101     103.4521   
  165.95869     103.4510   
  169.82437     103.4498   
  173.78008     103.4485   
  177.82794     103.4472   
  181.97009     103.4458   
  186.20871     103.4443   
  190.54607     103.4428   
  194.98446     103.4412   
  199.52623     103.4395   
  204.17379     103.4378   
  208.92961     103.4359   
  213.79621     103.4340   
  218.77616     103.4320   
  223.87211     103.4299   
  229.08677     103.4277   
  234.42288     103.4254   
  239.88329     103.4230   
  245.47089     103.4205   
  251.18864     103.4178   
  257.03958     103.4150   
  263.02680     103.4122   
  269.15348     103.4091   
  275.42287     103.4060   
  281.83829     103.4027   
  288.40315     103.3992   
  295.12092     103.3956   
  301.99517     103.3918   
  309.02954     103.3878   
  316.22777     103.3837   
  323.59366     103.3793   
  331.13112     103.3748   
  338.84416     103.3700   
  346.73685     103.3650   
  354.81339     103.3598   
  363.07805     103.3544   
  371.53523     103.3487   
  380.18940     103.3428   
  389.04514     103.3366   
  398.10717     103.3301   
  407.38028     103.3233   
  416.86938     103.3162   
  426.57952     103.3087   
  436.51583     103.3010   
  446.68359     103.2928   
  457.08819     103.2844   
  467.73514     103.2755   
  478.63009     103.2662   
  489.77882     103.2566   
  501.18723     103.2465   
  512.86138     103.2359   
  524.80746     103.2249   
  537.03180     103.2133   
  549.54087     103.2013   
  562.34133     103.1887   
  575.43994     103.1756   
  588.84366     103.1619   
  602.55959     103.1476   
  616.59500     103.1327   
  630.95734     103.1172   
  645.65423     103.1009   
  660.69345     103.0840   
  676.08298     103.0663   
  691.83097     103.0479   
  707.94578     103.0287   
  724.43596     103.0087   
  741.31024     102.9878   
  758.57758     102.9660   
  776.24712     102.9434   
  794.32823     102.9198   
  812.83052     102.8952   
  831.76377     102.8697   
  851.13804     102.8430   
  870.96359     102.8153   
  891.25094     102.7865   
  912.01084     102.7565   
  933.25430     102.7254   
  954.99259     102.6930   
  977.23722     102.6593   
    1.00000k    102.6243   
    1.02329k    102.5880   
    1.04713k    102.5503   
    1.07152k    102.5111   
    1.09648k    102.4705   
    1.12202k    102.4284   
    1.14815k    102.3847   
    1.17490k    102.3394   
    1.20226k    102.2925   
    1.23027k    102.2439   
    1.25893k    102.1936   
    1.28825k    102.1416   
    1.31826k    102.0878   
    1.34896k    102.0321   
    1.38038k    101.9745   
    1.41254k    101.9151   
    1.44544k    101.8537   
    1.47911k    101.7903   
    1.51356k    101.7250   
    1.54882k    101.6576   
    1.58489k    101.5881   
    1.62181k    101.5165   
    1.65959k    101.4428   
    1.69824k    101.3669   
    1.73780k    101.2888   
    1.77828k    101.2086   
    1.81970k    101.1261   
    1.86209k    101.0414   
    1.90546k    100.9544   
    1.94984k    100.8651   
    1.99526k    100.7736   
    2.04174k    100.6798   
    2.08930k    100.5837   
    2.13796k    100.4853   
    2.18776k    100.3845   
    2.23872k    100.2815   
    2.29087k    100.1762   
    2.34423k    100.0686   
    2.39883k     99.9587   
    2.45471k     99.8465   
    2.51189k     99.7321   
    2.57040k     99.6154   
    2.63027k     99.4965   
    2.69153k     99.3754   
    2.75423k     99.2521   
    2.81838k     99.1266   
    2.88403k     98.9990   
    2.95121k     98.8692   
    3.01995k     98.7374   
    3.09030k     98.6036   
    3.16228k     98.4677   
    3.23594k     98.3298   
    3.31131k     98.1900   
    3.38844k     98.0482   
    3.46737k     97.9046   
    3.54813k     97.7591   
    3.63078k     97.6118   
    3.71535k     97.4628   
    3.80189k     97.3120   
    3.89045k     97.1595   
    3.98107k     97.0054   
    4.07380k     96.8497   
    4.16869k     96.6924   
    4.26580k     96.5336   
    4.36516k     96.3733   
    4.46684k     96.2115   
    4.57088k     96.0483   
    4.67735k     95.8838   
    4.78630k     95.7180   
    4.89779k     95.5509   
    5.01187k     95.3825   
    5.12861k     95.2129   
    5.24807k     95.0422   
    5.37032k     94.8703   
    5.49541k     94.6973   
    5.62341k     94.5233   
    5.75440k     94.3482   
    5.88844k     94.1722   
    6.02560k     93.9952   
    6.16595k     93.8172   
    6.30957k     93.6384   
    6.45654k     93.4588   
    6.60693k     93.2783   
    6.76083k     93.0970   
    6.91831k     92.9149   
    7.07946k     92.7321   
    7.24436k     92.5486   
    7.41310k     92.3645   
    7.58578k     92.1796   
    7.76247k     91.9941   
    7.94328k     91.8081   
    8.12831k     91.6214   
    8.31764k     91.4342   
    8.51138k     91.2464   
    8.70964k     91.0581   
    8.91251k     90.8693   
    9.12011k     90.6800   
    9.33254k     90.4903   
    9.54993k     90.3002   
    9.77237k     90.1096   
   10.00000k     89.9186   
   10.23293k     89.7272   
   10.47129k     89.5355   
   10.71519k     89.3434   
   10.96478k     89.1509   
   11.22018k     88.9581   
   11.48154k     88.7651   
   11.74898k     88.5717   
   12.02264k     88.3780   
   12.30269k     88.1840   
   12.58925k     87.9898   
   12.88250k     87.7953   
   13.18257k     87.6006   
   13.48963k     87.4057   
   13.80384k     87.2105   
   14.12538k     87.0151   
   14.45440k     86.8196   
   14.79108k     86.6238   
   15.13561k     86.4278   
   15.48817k     86.2317   
   15.84893k     86.0354   
   16.21810k     85.8389   
   16.59587k     85.6423   
   16.98244k     85.4455   
   17.37801k     85.2486   
   17.78279k     85.0515   
   18.19701k     84.8543   
   18.62087k     84.6570   
   19.05461k     84.4596   
   19.49845k     84.2620   
   19.95262k     84.0644   
   20.41738k     83.8666   
   20.89296k     83.6687   
   21.37962k     83.4708   
   21.87762k     83.2727   
   22.38721k     83.0746   
   22.90868k     82.8764   
   23.44229k     82.6781   
   23.98833k     82.4797   
   24.54709k     82.2813   
   25.11886k     82.0828   
   25.70396k     81.8842   
   26.30268k     81.6855   
   26.91535k     81.4868   
   27.54229k     81.2881   
   28.18383k     81.0892   
   28.84032k     80.8904   
   29.51209k     80.6915   
   30.19952k     80.4925   
   30.90295k     80.2935   
   31.62278k     80.0944   
   32.35937k     79.8953   
   33.11311k     79.6962   
   33.88442k     79.4970   
   34.67369k     79.2978   
   35.48134k     79.0985   
   36.30781k     78.8992   
   37.15352k     78.6999   
   38.01894k     78.5006   
   38.90451k     78.3012   
   39.81072k     78.1018   
   40.73803k     77.9024   
   41.68694k     77.7029   
   42.65795k     77.5035   
   43.65158k     77.3039   
   44.66836k     77.1044   
   45.70882k     76.9049   
   46.77351k     76.7053   
   47.86301k     76.5057   
   48.97788k     76.3061   
   50.11872k     76.1065   
   51.28614k     75.9069   
   52.48075k     75.7072   
   53.70318k     75.5076   
   54.95409k     75.3079   
   56.23413k     75.1082   
   57.54399k     74.9085   
   58.88437k     74.7088   
   60.25596k     74.5090   
   61.65950k     74.3093   
   63.09573k     74.1095   
   64.56542k     73.9098   
   66.06934k     73.7100   
   67.60830k     73.5102   
   69.18310k     73.3104   
   70.79458k     73.1106   
   72.44360k     72.9108   
   74.13102k     72.7110   
   75.85776k     72.5112   
   77.62471k     72.3114   
   79.43282k     72.1115   
   81.28305k     71.9117   
   83.17638k     71.7118   
   85.11380k     71.5120   
   87.09636k     71.3121   
   89.12509k     71.1123   
   91.20108k     70.9124   
   93.32543k     70.7125   
   95.49926k     70.5127   
   97.72372k     70.3128   
  100.00000k     70.1129   
  102.32930k     69.9130   
  104.71285k     69.7131   
  107.15193k     69.5132   
  109.64782k     69.3133   
  112.20185k     69.1135   
  114.81536k     68.9136   
  117.48976k     68.7137   
  120.22644k     68.5138   
  123.02688k     68.3139   
  125.89254k     68.1140   
  128.82496k     67.9141   
  131.82567k     67.7142   
  134.89629k     67.5143   
  138.03843k     67.3144   
  141.25375k     67.1145   
  144.54398k     66.9146   
  147.91084k     66.7146   
  151.35612k     66.5147   
  154.88166k     66.3148   
  158.48932k     66.1149   
  162.18101k     65.9151   
  165.95869k     65.7152   
  169.82437k     65.5153   
  173.78008k     65.3154   
  177.82794k     65.1155   
  181.97009k     64.9156   
  186.20871k     64.7157   
  190.54607k     64.5158   
  194.98446k     64.3159   
  199.52623k     64.1161   
  204.17379k     63.9162   
  208.92961k     63.7163   
  213.79621k     63.5165   
  218.77616k     63.3166   
  223.87211k     63.1167   
  229.08677k     62.9169   
  234.42288k     62.7171   
  239.88329k     62.5172   
  245.47089k     62.3174   
  251.18864k     62.1176   
  257.03958k     61.9177   
  263.02680k     61.7179   
  269.15348k     61.5181   
  275.42287k     61.3183   
  281.83829k     61.1185   
  288.40315k     60.9188   
  295.12092k     60.7190   
  301.99517k     60.5192   
  309.02954k     60.3195   
  316.22777k     60.1197   
  323.59366k     59.9200   
  331.13112k     59.7203   
  338.84416k     59.5206   
  346.73685k     59.3209   
  354.81339k     59.1212   
  363.07805k     58.9216   
  371.53523k     58.7219   
  380.18940k     58.5223   
  389.04514k     58.3227   
  398.10717k     58.1231   
  407.38028k     57.9235   
  416.86938k     57.7240   
  426.57952k     57.5244   
  436.51583k     57.3249   
  446.68359k     57.1254   
  457.08819k     56.9260   
  467.73514k     56.7265   
  478.63009k     56.5271   
  489.77882k     56.3277   
  501.18723k     56.1283   
  512.86138k     55.9290   
  524.80746k     55.7297   
  537.03180k     55.5304   
  549.54087k     55.3312   
  562.34133k     55.1320   
  575.43994k     54.9328   
  588.84366k     54.7337   
  602.55959k     54.5346   
  616.59500k     54.3356   
  630.95734k     54.1366   
  645.65423k     53.9377   
  660.69345k     53.7388   
  676.08298k     53.5399   
  691.83097k     53.3411   
  707.94578k     53.1424   
  724.43596k     52.9437   
  741.31024k     52.7451   
  758.57758k     52.5466   
  776.24712k     52.3481   
  794.32823k     52.1497   
  812.83052k     51.9514   
  831.76377k     51.7531   
  851.13804k     51.5550   
  870.96359k     51.3569   
  891.25094k     51.1589   
  912.01084k     50.9610   
  933.25430k     50.7632   
  954.99259k     50.5655   
  977.23722k     50.3679   
    1.00000x     50.1705   
    1.02329x     49.9731   
    1.04713x     49.7759   
    1.07152x     49.5788   
    1.09648x     49.3818   
    1.12202x     49.1850   
    1.14815x     48.9884   
    1.17490x     48.7919   
    1.20226x     48.5955   
    1.23027x     48.3994   
    1.25893x     48.2034   
    1.28825x     48.0076   
    1.31826x     47.8120   
    1.34896x     47.6167   
    1.38038x     47.4215   
    1.41254x     47.2266   
    1.44544x     47.0319   
    1.47911x     46.8375   
    1.51356x     46.6433   
    1.54882x     46.4494   
    1.58489x     46.2558   
    1.62181x     46.0625   
    1.65959x     45.8695   
    1.69824x     45.6769   
    1.73780x     45.4846   
    1.77828x     45.2927   
    1.81970x     45.1012   
    1.86209x     44.9100   
    1.90546x     44.7193   
    1.94984x     44.5291   
    1.99526x     44.3393   
    2.04174x     44.1500   
    2.08930x     43.9612   
    2.13796x     43.7729   
    2.18776x     43.5853   
    2.23872x     43.3982   
    2.29087x     43.2117   
    2.34423x     43.0259   
    2.39883x     42.8408   
    2.45471x     42.6563   
    2.51189x     42.4727   
    2.57040x     42.2898   
    2.63027x     42.1078   
    2.69153x     41.9266   
    2.75423x     41.7464   
    2.81838x     41.5671   
    2.88403x     41.3888   
    2.95121x     41.2116   
    3.01995x     41.0355   
    3.09030x     40.8606   
    3.16228x     40.6869   
    3.23594x     40.5145   
    3.31131x     40.3435   
    3.38844x     40.1739   
    3.46737x     40.0058   
    3.54813x     39.8392   
    3.63078x     39.6744   
    3.71535x     39.5113   
    3.80189x     39.3500   
    3.89045x     39.1907   
    3.98107x     39.0334   
    4.07380x     38.8783   
    4.16869x     38.7254   
    4.26580x     38.5749   
    4.36516x     38.4269   
    4.46684x     38.2815   
    4.57088x     38.1390   
    4.67735x     37.9993   
    4.78630x     37.8628   
    4.89779x     37.7295   
    5.01187x     37.5997   
    5.12861x     37.4734   
    5.24807x     37.3510   
    5.37032x     37.2326   
    5.49541x     37.1185   
    5.62341x     37.0088   
    5.75440x     36.9039   
    5.88844x     36.8039   
    6.02560x     36.7091   
    6.16595x     36.6198   
    6.30957x     36.5362   
    6.45654x     36.4588   
    6.60693x     36.3876   
    6.76083x     36.3231   
    6.91831x     36.2655   
    7.07946x     36.2150   
    7.24436x     36.1719   
    7.41310x     36.1365   
    7.58578x     36.1088   
    7.76247x     36.0889   
    7.94328x     36.0768   
    8.12831x     36.0722   
    8.31764x     36.0748   
    8.51138x     36.0838   
    8.70964x     36.0982   
    8.91251x     36.1164   
    9.12011x     36.1364   
    9.33254x     36.1551   
    9.54993x     36.1689   
    9.77237x     36.1726   
   10.00000x     36.1602   
   10.23293x     36.1242   
   10.47129x     36.0559   
   10.71519x     35.9459   
   10.96478x     35.7843   
   11.22018x     35.5617   
   11.48154x     35.2707   
   11.74898x     34.9061   
   12.02264x     34.4665   
   12.30269x     33.9539   
   12.58925x     33.3738   
   12.88250x     32.7341   
   13.18257x     32.0444   
   13.48963x     31.3144   
   13.80384x     30.5537   
   14.12538x     29.7707   
   14.45440x     28.9727   
   14.79108x     28.1656   
   15.13561x     27.3543   
   15.48817x     26.5424   
   15.84893x     25.7328   
   16.21810x     24.9275   
   16.59587x     24.1279   
   16.98244x     23.3352   
   17.37801x     22.5499   
   17.78279x     21.7726   
   18.19701x     21.0032   
   18.62087x     20.2420   
   19.05461x     19.4888   
   19.49845x     18.7436   
   19.95262x     18.0060   
   20.41738x     17.2760   
   20.89296x     16.5533   
   21.37962x     15.8375   
   21.87762x     15.1285   
   22.38721x     14.4259   
   22.90868x     13.7296   
   23.44229x     13.0392   
   23.98833x     12.3546   
   24.54709x     11.6754   
   25.11886x     11.0015   
   25.70396x     10.3326   
   26.30268x      9.6687   
   26.91535x      9.0094   
   27.54229x      8.3545   
   28.18383x      7.7041   
   28.84032x      7.0578   
   29.51209x      6.4155   
   30.19952x      5.7771   
   30.90295x      5.1426   
   31.62278x      4.5116   
   32.35937x      3.8843   
   33.11311x      3.2604   
   33.88442x      2.6399   
   34.67369x      2.0228   
   35.48134x      1.4088   
   36.30781x    798.0089m  
   37.15352x    190.3165m  
   38.01894x   -414.3243m  
   38.90451x     -1.0160   
   39.81072x     -1.6146   
   40.73803x     -2.2104   
   41.68694x     -2.8032   
   42.65795x     -3.3932   
   43.65158x     -3.9804   
   44.66836x     -4.5647   
   45.70882x     -5.1462   
   46.77351x     -5.7249   
   47.86301x     -6.3008   
   48.97788x     -6.8740   
   50.11872x     -7.4443   
   51.28614x     -8.0118   
   52.48075x     -8.5766   
   53.70318x     -9.1385   
   54.95409x     -9.6977   
   56.23413x    -10.2540   
   57.54399x    -10.8074   
   58.88437x    -11.3581   
   60.25596x    -11.9058   
   61.65950x    -12.4507   
   63.09573x    -12.9927   
   64.56542x    -13.5318   
   66.06934x    -14.0680   
   67.60830x    -14.6011   
   69.18310x    -15.1314   
   70.79458x    -15.6586   
   72.44360x    -16.1828   
   74.13102x    -16.7041   
   75.85776x    -17.2222   
   77.62471x    -17.7373   
   79.43282x    -18.2493   
   81.28305x    -18.7582   
   83.17638x    -19.2640   
   85.11380x    -19.7667   
   87.09636x    -20.2662   
   89.12509x    -20.7626   
   91.20108x    -21.2558   
   93.32543x    -21.7458   
   95.49926x    -22.2327   
   97.72372x    -22.7163   
  100.00000x    -23.1967   
  102.32930x    -23.6739   
  104.71285x    -24.1479   
  107.15193x    -24.6186   
  109.64782x    -25.0861   
  112.20185x    -25.5504   
  114.81536x    -26.0114   
  117.48976x    -26.4692   
  120.22644x    -26.9238   
  123.02688x    -27.3751   
  125.89254x    -27.8231   
  128.82496x    -28.2680   
  131.82567x    -28.7096   
  134.89629x    -29.1479   
  138.03843x    -29.5830   
  141.25375x    -30.0149   
  144.54398x    -30.4436   
  147.91084x    -30.8690   
  151.35612x    -31.2912   
  154.88166x    -31.7102   
  158.48932x    -32.1260   
  162.18101x    -32.5386   
  165.95869x    -32.9479   
  169.82437x    -33.3541   
  173.78008x    -33.7571   
  177.82794x    -34.1568   
  181.97009x    -34.5534   
  186.20871x    -34.9468   
  190.54607x    -35.3370   
  194.98446x    -35.7240   
  199.52623x    -36.1078   
  204.17379x    -36.4885   
  208.92961x    -36.8660   
  213.79621x    -37.2403   
  218.77616x    -37.6114   
  223.87211x    -37.9794   
  229.08677x    -38.3443   
  234.42288x    -38.7060   
  239.88329x    -39.0645   
  245.47089x    -39.4199   
  251.18864x    -39.7722   
  257.03958x    -40.1214   
  263.02680x    -40.4674   
  269.15348x    -40.8104   
  275.42287x    -41.1502   
  281.83829x    -41.4870   
  288.40315x    -41.8207   
  295.12092x    -42.1514   
  301.99517x    -42.4791   
  309.02954x    -42.8037   
  316.22777x    -43.1253   
  323.59366x    -43.4440   
  331.13112x    -43.7597   
  338.84416x    -44.0725   
  346.73685x    -44.3824   
  354.81339x    -44.6894   
  363.07805x    -44.9936   
  371.53523x    -45.2949   
  380.18940x    -45.5935   
  389.04514x    -45.8893   
  398.10717x    -46.1825   
  407.38028x    -46.4729   
  416.86938x    -46.7607   
  426.57952x    -47.0460   
  436.51583x    -47.3286   
  446.68359x    -47.6088   
  457.08819x    -47.8865   
  467.73514x    -48.1617   
  478.63009x    -48.4346   
  489.77882x    -48.7051   
  501.18723x    -48.9734   
  512.86138x    -49.2394   
  524.80746x    -49.5033   
  537.03180x    -49.7650   
  549.54087x    -50.0246   
  562.34133x    -50.2821   
  575.43994x    -50.5377   
  588.84366x    -50.7913   
  602.55959x    -51.0430   
  616.59500x    -51.2929   
  630.95734x    -51.5410   
  645.65423x    -51.7874   
  660.69345x    -52.0320   
  676.08298x    -52.2750   
  691.83097x    -52.5164   
  707.94578x    -52.7563   
  724.43596x    -52.9946   
  741.31024x    -53.2315   
  758.57758x    -53.4670   
  776.24712x    -53.7011   
  794.32823x    -53.9339   
  812.83052x    -54.1654   
  831.76377x    -54.3957   
  851.13804x    -54.6248   
  870.96359x    -54.8527   
  891.25094x    -55.0795   
  912.01084x    -55.3053   
  933.25430x    -55.5300   
  954.99259x    -55.7537   
  977.23722x    -55.9764   
    1.00000g    -56.1982   
y
-----------------------------------------------
x

        freq    volt phase 
                   vo_ac   
    1.00000     -26.6867m  
    1.02329     -27.3083m  
    1.04713     -27.9444m  
    1.07152     -28.5953m  
    1.09648     -29.2614m  
    1.12202     -29.9429m  
    1.14815     -30.6404m  
    1.17490     -31.3541m  
    1.20226     -32.0844m  
    1.23027     -32.8318m  
    1.25893     -33.5965m  
    1.28825     -34.3791m  
    1.31826     -35.1799m  
    1.34896     -35.9993m  
    1.38038     -36.8379m  
    1.41254     -37.6959m  
    1.44544     -38.5740m  
    1.47911     -39.4725m  
    1.51356     -40.3919m  
    1.54882     -41.3328m  
    1.58489     -42.2955m  
    1.62181     -43.2807m  
    1.65959     -44.2888m  
    1.69824     -45.3205m  
    1.73780     -46.3761m  
    1.77828     -47.4563m  
    1.81970     -48.5618m  
    1.86209     -49.6929m  
    1.90546     -50.8504m  
    1.94984     -52.0349m  
    1.99526     -53.2469m  
    2.04174     -54.4872m  
    2.08930     -55.7564m  
    2.13796     -57.0551m  
    2.18776     -58.3841m  
    2.23872     -59.7440m  
    2.29087     -61.1356m  
    2.34423     -62.5596m  
    2.39883     -64.0168m  
    2.45471     -65.5080m  
    2.51189     -67.0339m  
    2.57040     -68.5953m  
    2.63027     -70.1931m  
    2.69153     -71.8281m  
    2.75423     -73.5012m  
    2.81838     -75.2132m  
    2.88403     -76.9652m  
    2.95121     -78.7579m  
    3.01995     -80.5924m  
    3.09030     -82.4697m  
    3.16228     -84.3906m  
    3.23594     -86.3563m  
    3.31131     -88.3678m  
    3.38844     -90.4262m  
    3.46737     -92.5325m  
    3.54813     -94.6878m  
    3.63078     -96.8934m  
    3.71535     -99.1503m  
    3.80189    -101.4598m  
    3.89045    -103.8231m  
    3.98107    -106.2414m  
    4.07380    -108.7161m  
    4.16869    -111.2484m  
    4.26580    -113.8397m  
    4.36516    -116.4914m  
    4.46684    -119.2048m  
    4.57088    -121.9814m  
    4.67735    -124.8227m  
    4.78630    -127.7302m  
    4.89779    -130.7054m  
    5.01187    -133.7500m  
    5.12861    -136.8654m  
    5.24807    -140.0534m  
    5.37032    -143.3156m  
    5.49541    -146.6539m  
    5.62341    -150.0698m  
    5.75440    -153.5654m  
    5.88844    -157.1424m  
    6.02560    -160.8027m  
    6.16595    -164.5482m  
    6.30957    -168.3810m  
    6.45654    -172.3031m  
    6.60693    -176.3165m  
    6.76083    -180.4235m  
    6.91831    -184.6260m  
    7.07946    -188.9265m  
    7.24436    -193.3271m  
    7.41310    -197.8303m  
    7.58578    -202.4383m  
    7.76247    -207.1536m  
    7.94328    -211.9788m  
    8.12831    -216.9164m  
    8.31764    -221.9690m  
    8.51138    -227.1392m  
    8.70964    -232.4300m  
    8.91251    -237.8439m  
    9.12011    -243.3839m  
    9.33254    -249.0530m  
    9.54993    -254.8541m  
    9.77237    -260.7903m  
   10.00000    -266.8648m  
   10.23293    -273.0808m  
   10.47129    -279.4416m  
   10.71519    -285.9505m  
   10.96478    -292.6110m  
   11.22018    -299.4267m  
   11.48154    -306.4011m  
   11.74898    -313.5380m  
   12.02264    -320.8410m  
   12.30269    -328.3142m  
   12.58925    -335.9615m  
   12.88250    -343.7868m  
   13.18257    -351.7945m  
   13.48963    -359.9886m  
   13.80384    -368.3736m  
   14.12538    -376.9539m  
   14.45440    -385.7340m  
   14.79108    -394.7186m  
   15.13561    -403.9125m  
   15.48817    -413.3205m  
   15.84893    -422.9476m  
   16.21810    -432.7990m  
   16.59587    -442.8797m  
   16.98244    -453.1953m  
   17.37801    -463.7511m  
   17.78279    -474.5528m  
   18.19701    -485.6060m  
   18.62087    -496.9167m  
   19.05461    -508.4907m  
   19.49845    -520.3344m  
   19.95262    -532.4538m  
   20.41738    -544.8555m  
   20.89296    -557.5460m  
   21.37962    -570.5321m  
   21.87762    -583.8206m  
   22.38721    -597.4186m  
   22.90868    -611.3332m  
   23.44229    -625.5718m  
   23.98833    -640.1421m  
   24.54709    -655.0516m  
   25.11886    -670.3084m  
   25.70396    -685.9204m  
   26.30268    -701.8960m  
   26.91535    -718.2435m  
   27.54229    -734.9717m  
   28.18383    -752.0895m  
   28.84032    -769.6058m  
   29.51209    -787.5301m  
   30.19952    -805.8716m  
   30.90295    -824.6402m  
   31.62278    -843.8457m  
   32.35937    -863.4985m  
   33.11311    -883.6088m  
   33.88442    -904.1873m  
   34.67369    -925.2450m  
   35.48134    -946.7927m  
   36.30781    -968.8423m  
   37.15352    -991.4051m  
   38.01894      -1.0145   
   38.90451      -1.0381   
   39.81072      -1.0623   
   40.73803      -1.0870   
   41.68694      -1.1123   
   42.65795      -1.1382   
   43.65158      -1.1648   
   44.66836      -1.1919   
   45.70882      -1.2196   
   46.77351      -1.2480   
   47.86301      -1.2771   
   48.97788      -1.3068   
   50.11872      -1.3373   
   51.28614      -1.3684   
   52.48075      -1.4003   
   53.70318      -1.4329   
   54.95409      -1.4662   
   56.23413      -1.5004   
   57.54399      -1.5353   
   58.88437      -1.5710   
   60.25596      -1.6076   
   61.65950      -1.6450   
   63.09573      -1.6833   
   64.56542      -1.7225   
   66.06934      -1.7626   
   67.60830      -1.8036   
   69.18310      -1.8456   
   70.79458      -1.8886   
   72.44360      -1.9325   
   74.13102      -1.9775   
   75.85776      -2.0235   
   77.62471      -2.0706   
   79.43282      -2.1188   
   81.28305      -2.1681   
   83.17638      -2.2186   
   85.11380      -2.2702   
   87.09636      -2.3230   
   89.12509      -2.3771   
   91.20108      -2.4324   
   93.32543      -2.4890   
   95.49926      -2.5469   
   97.72372      -2.6061   
  100.00000      -2.6667   
  102.32930      -2.7288   
  104.71285      -2.7922   
  107.15193      -2.8572   
  109.64782      -2.9236   
  112.20185      -2.9916   
  114.81536      -3.0611   
  117.48976      -3.1323   
  120.22644      -3.2051   
  123.02688      -3.2796   
  125.89254      -3.3558   
  128.82496      -3.4338   
  131.82567      -3.5136   
  134.89629      -3.5952   
  138.03843      -3.6787   
  141.25375      -3.7642   
  144.54398      -3.8516   
  147.91084      -3.9410   
  151.35612      -4.0325   
  154.88166      -4.1261   
  158.48932      -4.2219   
  162.18101      -4.3199   
  165.95869      -4.4201   
  169.82437      -4.5226   
  173.78008      -4.6275   
  177.82794      -4.7348   
  181.97009      -4.8446   
  186.20871      -4.9569   
  190.54607      -5.0718   
  194.98446      -5.1893   
  199.52623      -5.3094   
  204.17379      -5.4324   
  208.92961      -5.5581   
  213.79621      -5.6868   
  218.77616      -5.8183   
  223.87211      -5.9529   
  229.08677      -6.0905   
  234.42288      -6.2313   
  239.88329      -6.3753   
  245.47089      -6.5225   
  251.18864      -6.6731   
  257.03958      -6.8270   
  263.02680      -6.9845   
  269.15348      -7.1455   
  275.42287      -7.3102   
  281.83829      -7.4786   
  288.40315      -7.6507   
  295.12092      -7.8268   
  301.99517      -8.0067   
  309.02954      -8.1907   
  316.22777      -8.3788   
  323.59366      -8.5711   
  331.13112      -8.7677   
  338.84416      -8.9687   
  346.73685      -9.1741   
  354.81339      -9.3840   
  363.07805      -9.5986   
  371.53523      -9.8178   
  380.18940     -10.0419   
  389.04514     -10.2709   
  398.10717     -10.5049   
  407.38028     -10.7439   
  416.86938     -10.9882   
  426.57952     -11.2377   
  436.51583     -11.4926   
  446.68359     -11.7529   
  457.08819     -12.0188   
  467.73514     -12.2903   
  478.63009     -12.5676   
  489.77882     -12.8507   
  501.18723     -13.1398   
  512.86138     -13.4349   
  524.80746     -13.7361   
  537.03180     -14.0435   
  549.54087     -14.3573   
  562.34133     -14.6774   
  575.43994     -15.0040   
  588.84366     -15.3373   
  602.55959     -15.6771   
  616.59500     -16.0238   
  630.95734     -16.3772   
  645.65423     -16.7376   
  660.69345     -17.1049   
  676.08298     -17.4794   
  691.83097     -17.8609   
  707.94578     -18.2497   
  724.43596     -18.6457   
  741.31024     -19.0490   
  758.57758     -19.4597   
  776.24712     -19.8779   
  794.32823     -20.3035   
  812.83052     -20.7366   
  831.76377     -21.1772   
  851.13804     -21.6254   
  870.96359     -22.0812   
  891.25094     -22.5446   
  912.01084     -23.0156   
  933.25430     -23.4942   
  954.99259     -23.9803   
  977.23722     -24.4740   
    1.00000k    -24.9752   
    1.02329k    -25.4839   
    1.04713k    -26.0001   
    1.07152k    -26.5236   
    1.09648k    -27.0544   
    1.12202k    -27.5924   
    1.14815k    -28.1375   
    1.17490k    -28.6897   
    1.20226k    -29.2487   
    1.23027k    -29.8146   
    1.25893k    -30.3870   
    1.28825k    -30.9659   
    1.31826k    -31.5512   
    1.34896k    -32.1425   
    1.38038k    -32.7398   
    1.41254k    -33.3429   
    1.44544k    -33.9514   
    1.47911k    -34.5653   
    1.51356k    -35.1842   
    1.54882k    -35.8079   
    1.58489k    -36.4362   
    1.62181k    -37.0688   
    1.65959k    -37.7053   
    1.69824k    -38.3456   
    1.73780k    -38.9892   
    1.77828k    -39.6360   
    1.81970k    -40.2855   
    1.86209k    -40.9376   
    1.90546k    -41.5917   
    1.94984k    -42.2476   
    1.99526k    -42.9050   
    2.04174k    -43.5635   
    2.08930k    -44.2228   
    2.13796k    -44.8825   
    2.18776k    -45.5422   
    2.23872k    -46.2017   
    2.29087k    -46.8605   
    2.34423k    -47.5184   
    2.39883k    -48.1749   
    2.45471k    -48.8298   
    2.51189k    -49.4827   
    2.57040k    -50.1333   
    2.63027k    -50.7812   
    2.69153k    -51.4261   
    2.75423k    -52.0677   
    2.81838k    -52.7058   
    2.88403k    -53.3399   
    2.95121k    -53.9699   
    3.01995k    -54.5955   
    3.09030k    -55.2164   
    3.16228k    -55.8323   
    3.23594k    -56.4429   
    3.31131k    -57.0482   
    3.38844k    -57.6478   
    3.46737k    -58.2416   
    3.54813k    -58.8293   
    3.63078k    -59.4107   
    3.71535k    -59.9858   
    3.80189k    -60.5543   
    3.89045k    -61.1160   
    3.98107k    -61.6710   
    4.07380k    -62.2190   
    4.16869k    -62.7599   
    4.26580k    -63.2936   
    4.36516k    -63.8200   
    4.46684k    -64.3392   
    4.57088k    -64.8509   
    4.67735k    -65.3552   
    4.78630k    -65.8520   
    4.89779k    -66.3412   
    5.01187k    -66.8229   
    5.12861k    -67.2970   
    5.24807k    -67.7635   
    5.37032k    -68.2224   
    5.49541k    -68.6738   
    5.62341k    -69.1176   
    5.75440k    -69.5538   
    5.88844k    -69.9826   
    6.02560k    -70.4038   
    6.16595k    -70.8177   
    6.30957k    -71.2241   
    6.45654k    -71.6233   
    6.60693k    -72.0151   
    6.76083k    -72.3998   
    6.91831k    -72.7772   
    7.07946k    -73.1477   
    7.24436k    -73.5111   
    7.41310k    -73.8676   
    7.58578k    -74.2172   
    7.76247k    -74.5600   
    7.94328k    -74.8962   
    8.12831k    -75.2258   
    8.31764k    -75.5489   
    8.51138k    -75.8655   
    8.70964k    -76.1758   
    8.91251k    -76.4799   
    9.12011k    -76.7779   
    9.33254k    -77.0698   
    9.54993k    -77.3557   
    9.77237k    -77.6358   
   10.00000k    -77.9101   
   10.23293k    -78.1787   
   10.47129k    -78.4418   
   10.71519k    -78.6993   
   10.96478k    -78.9515   
   11.22018k    -79.1984   
   11.48154k    -79.4402   
   11.74898k    -79.6768   
   12.02264k    -79.9084   
   12.30269k    -80.1351   
   12.58925k    -80.3569   
   12.88250k    -80.5741   
   13.18257k    -80.7866   
   13.48963k    -80.9945   
   13.80384k    -81.1980   
   14.12538k    -81.3971   
   14.45440k    -81.5919   
   14.79108k    -81.7825   
   15.13561k    -81.9690   
   15.48817k    -82.1515   
   15.84893k    -82.3300   
   16.21810k    -82.5046   
   16.59587k    -82.6755   
   16.98244k    -82.8426   
   17.37801k    -83.0061   
   17.78279k    -83.1660   
   18.19701k    -83.3225   
   18.62087k    -83.4755   
   19.05461k    -83.6253   
   19.49845k    -83.7717   
   19.95262k    -83.9149   
   20.41738k    -84.0550   
   20.89296k    -84.1921   
   21.37962k    -84.3262   
   21.87762k    -84.4573   
   22.38721k    -84.5856   
   22.90868k    -84.7110   
   23.44229k    -84.8338   
   23.98833k    -84.9538   
   24.54709k    -85.0713   
   25.11886k    -85.1861   
   25.70396k    -85.2985   
   26.30268k    -85.4084   
   26.91535k    -85.5160   
   27.54229k    -85.6212   
   28.18383k    -85.7241   
   28.84032k    -85.8248   
   29.51209k    -85.9233   
   30.19952k    -86.0197   
   30.90295k    -86.1139   
   31.62278k    -86.2062   
   32.35937k    -86.2965   
   33.11311k    -86.3848   
   33.88442k    -86.4712   
   34.67369k    -86.5558   
   35.48134k    -86.6386   
   36.30781k    -86.7196   
   37.15352k    -86.7989   
   38.01894k    -86.8765   
   38.90451k    -86.9525   
   39.81072k    -87.0269   
   40.73803k    -87.0997   
   41.68694k    -87.1709   
   42.65795k    -87.2407   
   43.65158k    -87.3091   
   44.66836k    -87.3760   
   45.70882k    -87.4415   
   46.77351k    -87.5057   
   47.86301k    -87.5686   
   48.97788k    -87.6302   
   50.11872k    -87.6905   
   51.28614k    -87.7496   
   52.48075k    -87.8076   
   53.70318k    -87.8643   
   54.95409k    -87.9200   
   56.23413k    -87.9746   
   57.54399k    -88.0280   
   58.88437k    -88.0805   
   60.25596k    -88.1319   
   61.65950k    -88.1824   
   63.09573k    -88.2318   
   64.56542k    -88.2804   
   66.06934k    -88.3280   
   67.60830k    -88.3748   
   69.18310k    -88.4207   
   70.79458k    -88.4657   
   72.44360k    -88.5100   
   74.13102k    -88.5534   
   75.85776k    -88.5961   
   77.62471k    -88.6381   
   79.43282k    -88.6793   
   81.28305k    -88.7199   
   83.17638k    -88.7597   
   85.11380k    -88.7989   
   87.09636k    -88.8375   
   89.12509k    -88.8754   
   91.20108k    -88.9128   
   93.32543k    -88.9496   
   95.49926k    -88.9858   
   97.72372k    -89.0215   
  100.00000k    -89.0567   
  102.32930k    -89.0913   
  104.71285k    -89.1255   
  107.15193k    -89.1593   
  109.64782k    -89.1925   
  112.20185k    -89.2254   
  114.81536k    -89.2578   
  117.48976k    -89.2899   
  120.22644k    -89.3216   
  123.02688k    -89.3529   
  125.89254k    -89.3839   
  128.82496k    -89.4145   
  131.82567k    -89.4448   
  134.89629k    -89.4749   
  138.03843k    -89.5047   
  141.25375k    -89.5342   
  144.54398k    -89.5634   
  147.91084k    -89.5924   
  151.35612k    -89.6213   
  154.88166k    -89.6499   
  158.48932k    -89.6783   
  162.18101k    -89.7066   
  165.95869k    -89.7347   
  169.82437k    -89.7626   
  173.78008k    -89.7905   
  177.82794k    -89.8182   
  181.97009k    -89.8458   
  186.20871k    -89.8734   
  190.54607k    -89.9008   
  194.98446k    -89.9283   
  199.52623k    -89.9557   
  204.17379k    -89.9830   
  208.92961k    -90.0104   
  213.79621k    -90.0377   
  218.77616k    -90.0651   
  223.87211k    -90.0926   
  229.08677k    -90.1200   
  234.42288k    -90.1476   
  239.88329k    -90.1752   
  245.47089k    -90.2029   
  251.18864k    -90.2307   
  257.03958k    -90.2587   
  263.02680k    -90.2867   
  269.15348k    -90.3150   
  275.42287k    -90.3434   
  281.83829k    -90.3720   
  288.40315k    -90.4007   
  295.12092k    -90.4297   
  301.99517k    -90.4590   
  309.02954k    -90.4884   
  316.22777k    -90.5182   
  323.59366k    -90.5482   
  331.13112k    -90.5785   
  338.84416k    -90.6091   
  346.73685k    -90.6400   
  354.81339k    -90.6713   
  363.07805k    -90.7030   
  371.53523k    -90.7350   
  380.18940k    -90.7674   
  389.04514k    -90.8002   
  398.10717k    -90.8335   
  407.38028k    -90.8672   
  416.86938k    -90.9013   
  426.57952k    -90.9360   
  436.51583k    -90.9711   
  446.68359k    -91.0068   
  457.08819k    -91.0430   
  467.73514k    -91.0797   
  478.63009k    -91.1171   
  489.77882k    -91.1550   
  501.18723k    -91.1936   
  512.86138k    -91.2328   
  524.80746k    -91.2727   
  537.03180k    -91.3132   
  549.54087k    -91.3545   
  562.34133k    -91.3965   
  575.43994k    -91.4392   
  588.84366k    -91.4827   
  602.55959k    -91.5270   
  616.59500k    -91.5722   
  630.95734k    -91.6182   
  645.65423k    -91.6651   
  660.69345k    -91.7128   
  676.08298k    -91.7615   
  691.83097k    -91.8112   
  707.94578k    -91.8618   
  724.43596k    -91.9135   
  741.31024k    -91.9661   
  758.57758k    -92.0199   
  776.24712k    -92.0748   
  794.32823k    -92.1308   
  812.83052k    -92.1879   
  831.76377k    -92.2463   
  851.13804k    -92.3058   
  870.96359k    -92.3667   
  891.25094k    -92.4288   
  912.01084k    -92.4923   
  933.25430k    -92.5572   
  954.99259k    -92.6235   
  977.23722k    -92.6912   
    1.00000x    -92.7604   
    1.02329x    -92.8312   
    1.04713x    -92.9035   
    1.07152x    -92.9774   
    1.09648x    -93.0530   
    1.12202x    -93.1304   
    1.14815x    -93.2094   
    1.17490x    -93.2903   
    1.20226x    -93.3731   
    1.23027x    -93.4577   
    1.25893x    -93.5443   
    1.28825x    -93.6330   
    1.31826x    -93.7237   
    1.34896x    -93.8165   
    1.38038x    -93.9116   
    1.41254x    -94.0089   
    1.44544x    -94.1085   
    1.47911x    -94.2106   
    1.51356x    -94.3150   
    1.54882x    -94.4221   
    1.58489x    -94.5317   
    1.62181x    -94.6440   
    1.65959x    -94.7591   
    1.69824x    -94.8770   
    1.73780x    -94.9979   
    1.77828x    -95.1218   
    1.81970x    -95.2488   
    1.86209x    -95.3791   
    1.90546x    -95.5127   
    1.94984x    -95.6497   
    1.99526x    -95.7902   
    2.04174x    -95.9344   
    2.08930x    -96.0823   
    2.13796x    -96.2342   
    2.18776x    -96.3901   
    2.23872x    -96.5502   
    2.29087x    -96.7145   
    2.34423x    -96.8834   
    2.39883x    -97.0568   
    2.45471x    -97.2351   
    2.51189x    -97.4183   
    2.57040x    -97.6067   
    2.63027x    -97.8004   
    2.69153x    -97.9996   
    2.75423x    -98.2046   
    2.81838x    -98.4156   
    2.88403x    -98.6329   
    2.95121x    -98.8566   
    3.01995x    -99.0871   
    3.09030x    -99.3246   
    3.16228x    -99.5695   
    3.23594x    -99.8220   
    3.31131x   -100.0826   
    3.38844x   -100.3516   
    3.46737x   -100.6293   
    3.54813x   -100.9162   
    3.63078x   -101.2128   
    3.71535x   -101.5195   
    3.80189x   -101.8368   
    3.89045x   -102.1653   
    3.98107x   -102.5056   
    4.07380x   -102.8583   
    4.16869x   -103.2242   
    4.26580x   -103.6039   
    4.36516x   -103.9982   
    4.46684x   -104.4081   
    4.57088x   -104.8346   
    4.67735x   -105.2785   
    4.78630x   -105.7411   
    4.89779x   -106.2236   
    5.01187x   -106.7273   
    5.12861x   -107.2537   
    5.24807x   -107.8044   
    5.37032x   -108.3812   
    5.49541x   -108.9860   
    5.62341x   -109.6210   
    5.75440x   -110.2886   
    5.88844x   -110.9914   
    6.02560x   -111.7324   
    6.16595x   -112.5147   
    6.30957x   -113.3422   
    6.45654x   -114.2188   
    6.60693x   -115.1490   
    6.76083x   -116.1380   
    6.91831x   -117.1916   
    7.07946x   -118.3161   
    7.24436x   -119.5189   
    7.41310x   -120.8081   
    7.58578x   -122.1930   
    7.76247x   -123.6841   
    7.94328x   -125.2931   
    8.12831x   -127.0333   
    8.31764x   -128.9195   
    8.51138x   -130.9682   
    8.70964x   -133.1977   
    8.91251x   -135.6280   
    9.12011x   -138.2804   
    9.33254x   -141.1772   
    9.54993x   -144.3406   
    9.77237x   -147.7916   
   10.00000x   -151.5475   
   10.23293x   -155.6197   
   10.47129x   -160.0095   
   10.71519x   -164.7053   
   10.96478x   -169.6784   
   11.22018x   -174.8815   
   11.48154x    179.7511   
   11.74898x    174.2996   
   12.02264x    168.8521   
   12.30269x    163.4962   
   12.58925x    158.3104   
   12.88250x    153.3575   
   13.18257x    148.6822   
   13.48963x    144.3103   
   13.80384x    140.2513   
   14.12538x    136.5020   
   14.45440x    133.0501   
   14.79108x    129.8774   
   15.13561x    126.9627   
   15.48817x    124.2837   
   15.84893x    121.8181   
   16.21810x    119.5447   
   16.59587x    117.4440   
   16.98244x    115.4977   
   17.37801x    113.6897   
   17.78279x    112.0053   
   18.19701x    110.4315   
   18.62087x    108.9567   
   19.05461x    107.5707   
   19.49845x    106.2643   
   19.95262x    105.0294   
   20.41738x    103.8589   
   20.89296x    102.7465   
   21.37962x    101.6864   
   21.87762x    100.6737   
   22.38721x     99.7038   
   22.90868x     98.7728   
   23.44229x     97.8770   
   23.98833x     97.0132   
   24.54709x     96.1785   
   25.11886x     95.3704   
   25.70396x     94.5864   
   26.30268x     93.8244   
   26.91535x     93.0825   
   27.54229x     92.3590   
   28.18383x     91.6522   
   28.84032x     90.9608   
   29.51209x     90.2834   
   30.19952x     89.6188   
   30.90295x     88.9659   
   31.62278x     88.3238   
   32.35937x     87.6915   
   33.11311x     87.0682   
   33.88442x     86.4532   
   34.67369x     85.8457   
   35.48134x     85.2451   
   36.30781x     84.6509   
   37.15352x     84.0626   
   38.01894x     83.4797   
   38.90451x     82.9017   
   39.81072x     82.3283   
   40.73803x     81.7592   
   41.68694x     81.1941   
   42.65795x     80.6326   
   43.65158x     80.0746   
   44.66836x     79.5199   
   45.70882x     78.9683   
   46.77351x     78.4197   
   47.86301x     77.8740   
   48.97788x     77.3312   
   50.11872x     76.7910   
   51.28614x     76.2537   
   52.48075x     75.7191   
   53.70318x     75.1873   
   54.95409x     74.6584   
   56.23413x     74.1324   
   57.54399x     73.6094   
   58.88437x     73.0896   
   60.25596x     72.5731   
   61.65950x     72.0600   
   63.09573x     71.5507   
   64.56542x     71.0451   
   66.06934x     70.5437   
   67.60830x     70.0465   
   69.18310x     69.5540   
   70.79458x     69.0663   
   72.44360x     68.5837   
   74.13102x     68.1065   
   75.85776x     67.6351   
   77.62471x     67.1697   
   79.43282x     66.7107   
   81.28305x     66.2585   
   83.17638x     65.8134   
   85.11380x     65.3756   
   87.09636x     64.9457   
   89.12509x     64.5240   
   91.20108x     64.1108   
   93.32543x     63.7065   
   95.49926x     63.3115   
   97.72372x     62.9261   
  100.00000x     62.5507   
  102.32930x     62.1857   
  104.71285x     61.8315   
  107.15193x     61.4883   
  109.64782x     61.1566   
  112.20185x     60.8367   
  114.81536x     60.5288   
  117.48976x     60.2334   
  120.22644x     59.9507   
  123.02688x     59.6810   
  125.89254x     59.4246   
  128.82496x     59.1817   
  131.82567x     58.9527   
  134.89629x     58.7376   
  138.03843x     58.5368   
  141.25375x     58.3505   
  144.54398x     58.1787   
  147.91084x     58.0217   
  151.35612x     57.8796   
  154.88166x     57.7526   
  158.48932x     57.6406   
  162.18101x     57.5438   
  165.95869x     57.4622   
  169.82437x     57.3959   
  173.78008x     57.3448   
  177.82794x     57.3090   
  181.97009x     57.2884   
  186.20871x     57.2829   
  190.54607x     57.2925   
  194.98446x     57.3171   
  199.52623x     57.3564   
  204.17379x     57.4105   
  208.92961x     57.4790   
  213.79621x     57.5619   
  218.77616x     57.6589   
  223.87211x     57.7697   
  229.08677x     57.8942   
  234.42288x     58.0320   
  239.88329x     58.1828   
  245.47089x     58.3464   
  251.18864x     58.5225   
  257.03958x     58.7106   
  263.02680x     58.9105   
  269.15348x     59.1218   
  275.42287x     59.3440   
  281.83829x     59.5769   
  288.40315x     59.8199   
  295.12092x     60.0727   
  301.99517x     60.3349   
  309.02954x     60.6061   
  316.22777x     60.8857   
  323.59366x     61.1734   
  331.13112x     61.4687   
  338.84416x     61.7712   
  346.73685x     62.0804   
  354.81339x     62.3959   
  363.07805x     62.7172   
  371.53523x     63.0439   
  380.18940x     63.3756   
  389.04514x     63.7117   
  398.10717x     64.0519   
  407.38028x     64.3958   
  416.86938x     64.7428   
  426.57952x     65.0927   
  436.51583x     65.4449   
  446.68359x     65.7992   
  457.08819x     66.1550   
  467.73514x     66.5121   
  478.63009x     66.8701   
  489.77882x     67.2286   
  501.18723x     67.5873   
  512.86138x     67.9458   
  524.80746x     68.3039   
  537.03180x     68.6611   
  549.54087x     69.0174   
  562.34133x     69.3723   
  575.43994x     69.7256   
  588.84366x     70.0771   
  602.55959x     70.4264   
  616.59500x     70.7735   
  630.95734x     71.1181   
  645.65423x     71.4599   
  660.69345x     71.7989   
  676.08298x     72.1348   
  691.83097x     72.4675   
  707.94578x     72.7968   
  724.43596x     73.1225   
  741.31024x     73.4447   
  758.57758x     73.7631   
  776.24712x     74.0777   
  794.32823x     74.3883   
  812.83052x     74.6949   
  831.76377x     74.9974   
  851.13804x     75.2958   
  870.96359x     75.5899   
  891.25094x     75.8798   
  912.01084x     76.1654   
  933.25430x     76.4467   
  954.99259x     76.7236   
  977.23722x     76.9961   
    1.00000g     77.2642   
y
-----------------------------------------------
 gain= 103.4768 
 ugf=  37.4259x
 phase=  83.8791 

          ***** job concluded
1****** HSPICE -- G-2012.06-SP1 64-BIT (Aug 27 2012) RHEL64 ******              
 ******  
 .title project: three-stage opamp

  ******  job statistics summary tnom=  25.000 temp=  27.000 *****
  
  
 ******  Machine Information  ******
 CPU:
 model name	: Intel(R) Xeon(R) Gold 6226R CPU @ 2.90GHz
 cpu MHz	: 1199.896
  
 OS:
 Linux version 3.10.0-1160.108.1.el7.x86_64 (mockbuild@kbuilder.bsys.centos.org) (gcc version 4.8.5 20150623 (Red Hat 4.8.5-44) (GCC) ) #1 SMP Thu Jan 25 16:17:31 UTC 2024


  ******  HSPICE Threads Information  ******

  Command Line Threads Count :     1
  Available CPU Count        :    64
  Actual Threads Count       :     1


  ******  Circuit Statistics  ******
  # nodes       =       5 # elements   =      16
  # resistors   =       5 # capacitors =       6 # inductors   =       0
  # mutual_inds =       0 # vccs       =       4 # vcvs        =       0
  # cccs        =       0 # ccvs       =       0 # volt_srcs   =       1
  # curr_srcs   =       0 # diodes     =       0 # bjts        =       0
  # jfets       =       0 # mosfets    =       0 # U elements  =       0
  # T elements  =       0 # W elements =       0 # B elements  =       0
  # S elements  =       0 # P elements =       0 # va device   =       0
  # vector_srcs =       0 # N elements =       0


  ******  Runtime Statistics (seconds)  ******

  analysis           time    # points   tot. iter  conv.iter
  op point           0.00           1           3
  ac analysis        0.00         901         901
  readin             0.00
  errchk             0.00
  setup              0.00
  output             0.00


           peak memory used        119.55 megabytes
           total cpu time            0.00 seconds
           total elapsed time        0.02 seconds
           job started at     10:28:20 09/04/2024
           job ended   at     10:28:20 09/04/2024


 lic: total license checkout elapse time:        0.00(s)
