$DATA1 SOURCE='HSPICE' VERSION='G-2012.06-SP1 64-BIT'
.TITLE '.title project: three-stage opamp'
 gain             ugf              phase            temper            
 alter#            
  101.6985         1.412e+06       -172.9379          27.0000         
 1                 
