 ****** HSPICE -- G-2012.06-SP1 64-BIT (Aug 27 2012) RHEL64 ******              
  Copyright (C) 2012 Synopsys, Inc. All Rights Reserved.                        
  Unpublished-rights reserved under US copyright laws.
  This program is protected by law and is subject to the
  terms and conditions of the license agreement from Synopsys.
  Use of this program is your acceptance to be bound by the
  license agreement. HSPICE is the trademark of Synopsys, Inc.
  Input File: ./sizing/circuit_behavior/3stage.sp                               
  Command line options: -C -i ./sizing/circuit_behavior/3stage.sp -o ./sizing/circuit_behavior/3stage
 Init: read install configuration file: /apps/EDAs/hspice2012.06-sp1/hspice/meta.cfg
1****** HSPICE -- G-2012.06-SP1 64-BIT (Aug 27 2012) RHEL64 ******              
 ******  
 .title project: three-stage opamp

  ******  circuit name directory
 circuit number to circuit name directory
   number circuitname                     definition         multiplier
        0 main circuit
        1 xac.                            opamp              1.00 
  
      
 *****************************************************************
 ******  option summary
 ******
 runlvl  = 3         bypass  = 2         
  Opening plot unit= 15
 file=./sizing/circuit_behavior/3stage.pa0

1****** HSPICE -- G-2012.06-SP1 64-BIT (Aug 27 2012) RHEL64 ******              
 ******  
 .title project: three-stage opamp

  ******  operating point information tnom=  25.000 temp=  27.000 *****
 ***** operating point status is all       simulation time is     0.     
    node    =voltage      node    =voltage      node    =voltage

 +0:vin_ac  =   0.      0:vo_ac   =   0.      1:node1   =   0.     
 +1:node2   =   0.      1:node2_no=   0.     


 **** voltage sources

 subckt             
 element  0:vin     
  volts      0.     
  current    0.     
  power      0.     

     total voltage source power dissipation=    0.            watts



 **** resistors

 subckt   xac        xac        xac        xac        xac        xac       
 element  1:rprs_in_ 1:rprs_1_2 1:rprs_2_o 1:r_l      1:rprs_nod 1:r_node2_
  r value   68.5039k    4.6605x  162.9252k    1.0000x  126.1138k  961.3015k
  v drop     0.         0.         0.         0.         0.         0.     
  current    0.         0.         0.         0.         0.         0.     
  power      0.         0.         0.         0.         0.         0.     


 **** voltage-controlled current sources


 subckt     xac        xac        xac        xac     
 element  1:g_in_1   1:g_1_2    1:g_2_out  1:g_node1_
  v drop     0.         0.         0.         0.     
  current    0.         0.         0.         0.     



 ***************************************************
   ******   pole/zero analysis  
  
  
    input =  0:vin          output = v(vo_ac)
  
       poles (rad/sec)                 poles ( hertz)
 real            imag            real            imag            
 -604.639        0.              -96.2313        0.              
 -175.621k       0.              -27.9510k       0.              
 -728.282k       0.              -115.910k       0.              
 -2.98179x       0.              -474.567k       0.              
  
       zeros (rad/sec)                 zeros ( hertz)
 real            imag            real            imag            
 -211.512k       0.              -33.6633k       0.              
 -1.62476x       0.              -258.589k       0.              
 90.5204x        0.              14.4068x        0.              
  
  ***** constant factor = -901.418k
 ******  
 .title project: three-stage opamp

  ******  ac analysis tnom=  25.000 temp=  27.000 *****
x

        freq    volt db    
                   vo_ac   
    1.00000     101.6985   
    1.02329     101.6985   
    1.04713     101.6985   
    1.07152     101.6984   
    1.09648     101.6984   
    1.12202     101.6984   
    1.14815     101.6984   
    1.17490     101.6983   
    1.20226     101.6983   
    1.23027     101.6983   
    1.25893     101.6982   
    1.28825     101.6982   
    1.31826     101.6982   
    1.34896     101.6981   
    1.38038     101.6981   
    1.41254     101.6980   
    1.44544     101.6980   
    1.47911     101.6979   
    1.51356     101.6979   
    1.54882     101.6978   
    1.58489     101.6978   
    1.62181     101.6977   
    1.65959     101.6977   
    1.69824     101.6976   
    1.73780     101.6976   
    1.77828     101.6975   
    1.81970     101.6974   
    1.86209     101.6973   
    1.90546     101.6973   
    1.94984     101.6972   
    1.99526     101.6971   
    2.04174     101.6970   
    2.08930     101.6969   
    2.13796     101.6968   
    2.18776     101.6967   
    2.23872     101.6966   
    2.29087     101.6965   
    2.34423     101.6964   
    2.39883     101.6963   
    2.45471     101.6961   
    2.51189     101.6960   
    2.57040     101.6959   
    2.63027     101.6957   
    2.69153     101.6956   
    2.75423     101.6954   
    2.81838     101.6952   
    2.88403     101.6951   
    2.95121     101.6949   
    3.01995     101.6947   
    3.09030     101.6945   
    3.16228     101.6943   
    3.23594     101.6941   
    3.31131     101.6938   
    3.38844     101.6936   
    3.46737     101.6933   
    3.54813     101.6931   
    3.63078     101.6928   
    3.71535     101.6925   
    3.80189     101.6922   
    3.89045     101.6919   
    3.98107     101.6915   
    4.07380     101.6912   
    4.16869     101.6908   
    4.26580     101.6904   
    4.36516     101.6900   
    4.46684     101.6896   
    4.57088     101.6892   
    4.67735     101.6887   
    4.78630     101.6882   
    4.89779     101.6877   
    5.01187     101.6872   
    5.12861     101.6867   
    5.24807     101.6861   
    5.37032     101.6855   
    5.49541     101.6848   
    5.62341     101.6842   
    5.75440     101.6835   
    5.88844     101.6827   
    6.02560     101.6820   
    6.16595     101.6812   
    6.30957     101.6803   
    6.45654     101.6795   
    6.60693     101.6785   
    6.76083     101.6776   
    6.91831     101.6766   
    7.07946     101.6755   
    7.24436     101.6744   
    7.41310     101.6733   
    7.58578     101.6721   
    7.76247     101.6708   
    7.94328     101.6695   
    8.12831     101.6681   
    8.31764     101.6666   
    8.51138     101.6651   
    8.70964     101.6635   
    8.91251     101.6619   
    9.12011     101.6601   
    9.33254     101.6583   
    9.54993     101.6564   
    9.77237     101.6544   
   10.00000     101.6523   
   10.23293     101.6501   
   10.47129     101.6479   
   10.71519     101.6455   
   10.96478     101.6430   
   11.22018     101.6403   
   11.48154     101.6376   
   11.74898     101.6347   
   12.02264     101.6317   
   12.30269     101.6286   
   12.58925     101.6253   
   12.88250     101.6218   
   13.18257     101.6182   
   13.48963     101.6145   
   13.80384     101.6105   
   14.12538     101.6064   
   14.45440     101.6021   
   14.79108     101.5976   
   15.13561     101.5928   
   15.48817     101.5879   
   15.84893     101.5827   
   16.21810     101.5773   
   16.59587     101.5717   
   16.98244     101.5658   
   17.37801     101.5596   
   17.78279     101.5531   
   18.19701     101.5464   
   18.62087     101.5393   
   19.05461     101.5319   
   19.49845     101.5242   
   19.95262     101.5162   
   20.41738     101.5077   
   20.89296     101.4989   
   21.37962     101.4897   
   21.87762     101.4801   
   22.38721     101.4701   
   22.90868     101.4596   
   23.44229     101.4486   
   23.98833     101.4372   
   24.54709     101.4252   
   25.11886     101.4127   
   25.70396     101.3997   
   26.30268     101.3861   
   26.91535     101.3719   
   27.54229     101.3570   
   28.18383     101.3416   
   28.84032     101.3254   
   29.51209     101.3086   
   30.19952     101.2910   
   30.90295     101.2727   
   31.62278     101.2536   
   32.35937     101.2337   
   33.11311     101.2130   
   33.88442     101.1914   
   34.67369     101.1688   
   35.48134     101.1454   
   36.30781     101.1210   
   37.15352     101.0955   
   38.01894     101.0691   
   38.90451     101.0415   
   39.81072     101.0129   
   40.73803     100.9830   
   41.68694     100.9521   
   42.65795     100.9198   
   43.65158     100.8863   
   44.66836     100.8516   
   45.70882     100.8154   
   46.77351     100.7779   
   47.86301     100.7390   
   48.97788     100.6986   
   50.11872     100.6567   
   51.28614     100.6132   
   52.48075     100.5682   
   53.70318     100.5215   
   54.95409     100.4732   
   56.23413     100.4231   
   57.54399     100.3713   
   58.88437     100.3177   
   60.25596     100.2623   
   61.65950     100.2051   
   63.09573     100.1459   
   64.56542     100.0848   
   66.06934     100.0217   
   67.60830      99.9566   
   69.18310      99.8895   
   70.79458      99.8203   
   72.44360      99.7491   
   74.13102      99.6756   
   75.85776      99.6001   
   77.62471      99.5223   
   79.43282      99.4424   
   81.28305      99.3602   
   83.17638      99.2758   
   85.11380      99.1892   
   87.09636      99.1003   
   89.12509      99.0091   
   91.20108      98.9156   
   93.32543      98.8198   
   95.49926      98.7217   
   97.72372      98.6213   
  100.00000      98.5186   
  102.32930      98.4136   
  104.71285      98.3063   
  107.15193      98.1968   
  109.64782      98.0849   
  112.20185      97.9708   
  114.81536      97.8545   
  117.48976      97.7359   
  120.22644      97.6151   
  123.02688      97.4921   
  125.89254      97.3669   
  128.82496      97.2396   
  131.82567      97.1102   
  134.89629      96.9787   
  138.03843      96.8451   
  141.25375      96.7095   
  144.54398      96.5719   
  147.91084      96.4323   
  151.35612      96.2909   
  154.88166      96.1475   
  158.48932      96.0023   
  162.18101      95.8552   
  165.95869      95.7064   
  169.82437      95.5559   
  173.78008      95.4037   
  177.82794      95.2498   
  181.97009      95.0943   
  186.20871      94.9372   
  190.54607      94.7786   
  194.98446      94.6185   
  199.52623      94.4570   
  204.17379      94.2940   
  208.92961      94.1297   
  213.79621      93.9640   
  218.77616      93.7971   
  223.87211      93.6289   
  229.08677      93.4594   
  234.42288      93.2889   
  239.88329      93.1171   
  245.47089      92.9443   
  251.18864      92.7704   
  257.03958      92.5955   
  263.02680      92.4196   
  269.15348      92.2427   
  275.42287      92.0649   
  281.83829      91.8862   
  288.40315      91.7067   
  295.12092      91.5263   
  301.99517      91.3451   
  309.02954      91.1632   
  316.22777      90.9805   
  323.59366      90.7971   
  331.13112      90.6130   
  338.84416      90.4282   
  346.73685      90.2428   
  354.81339      90.0568   
  363.07805      89.8702   
  371.53523      89.6830   
  380.18940      89.4953   
  389.04514      89.3071   
  398.10717      89.1184   
  407.38028      88.9292   
  416.86938      88.7395   
  426.57952      88.5494   
  436.51583      88.3588   
  446.68359      88.1679   
  457.08819      87.9765   
  467.73514      87.7848   
  478.63009      87.5927   
  489.77882      87.4003   
  501.18723      87.2076   
  512.86138      87.0145   
  524.80746      86.8211   
  537.03180      86.6275   
  549.54087      86.4335   
  562.34133      86.2393   
  575.43994      86.0448   
  588.84366      85.8501   
  602.55959      85.6552   
  616.59500      85.4600   
  630.95734      85.2646   
  645.65423      85.0690   
  660.69345      84.8733   
  676.08298      84.6773   
  691.83097      84.4811   
  707.94578      84.2848   
  724.43596      84.0883   
  741.31024      83.8916   
  758.57758      83.6948   
  776.24712      83.4979   
  794.32823      83.3008   
  812.83052      83.1035   
  831.76377      82.9062   
  851.13804      82.7087   
  870.96359      82.5111   
  891.25094      82.3134   
  912.01084      82.1156   
  933.25430      81.9176   
  954.99259      81.7196   
  977.23722      81.5215   
    1.00000k     81.3233   
    1.02329k     81.1250   
    1.04713k     80.9266   
    1.07152k     80.7281   
    1.09648k     80.5296   
    1.12202k     80.3310   
    1.14815k     80.1323   
    1.17490k     79.9335   
    1.20226k     79.7347   
    1.23027k     79.5358   
    1.25893k     79.3368   
    1.28825k     79.1378   
    1.31826k     78.9387   
    1.34896k     78.7396   
    1.38038k     78.5404   
    1.41254k     78.3412   
    1.44544k     78.1419   
    1.47911k     77.9426   
    1.51356k     77.7432   
    1.54882k     77.5438   
    1.58489k     77.3443   
    1.62181k     77.1448   
    1.65959k     76.9452   
    1.69824k     76.7456   
    1.73780k     76.5460   
    1.77828k     76.3463   
    1.81970k     76.1466   
    1.86209k     75.9468   
    1.90546k     75.7470   
    1.94984k     75.5471   
    1.99526k     75.3473   
    2.04174k     75.1473   
    2.08930k     74.9474   
    2.13796k     74.7474   
    2.18776k     74.5474   
    2.23872k     74.3473   
    2.29087k     74.1472   
    2.34423k     73.9470   
    2.39883k     73.7468   
    2.45471k     73.5466   
    2.51189k     73.3464   
    2.57040k     73.1461   
    2.63027k     72.9457   
    2.69153k     72.7453   
    2.75423k     72.5449   
    2.81838k     72.3444   
    2.88403k     72.1439   
    2.95121k     71.9434   
    3.01995k     71.7428   
    3.09030k     71.5421   
    3.16228k     71.3414   
    3.23594k     71.1407   
    3.31131k     70.9399   
    3.38844k     70.7390   
    3.46737k     70.5381   
    3.54813k     70.3372   
    3.63078k     70.1362   
    3.71535k     69.9351   
    3.80189k     69.7339   
    3.89045k     69.5327   
    3.98107k     69.3315   
    4.07380k     69.1301   
    4.16869k     68.9287   
    4.26580k     68.7272   
    4.36516k     68.5257   
    4.46684k     68.3240   
    4.57088k     68.1223   
    4.67735k     67.9205   
    4.78630k     67.7186   
    4.89779k     67.5166   
    5.01187k     67.3145   
    5.12861k     67.1123   
    5.24807k     66.9100   
    5.37032k     66.7076   
    5.49541k     66.5051   
    5.62341k     66.3025   
    5.75440k     66.0997   
    5.88844k     65.8968   
    6.02560k     65.6938   
    6.16595k     65.4907   
    6.30957k     65.2874   
    6.45654k     65.0839   
    6.60693k     64.8803   
    6.76083k     64.6766   
    6.91831k     64.4726   
    7.07946k     64.2685   
    7.24436k     64.0643   
    7.41310k     63.8598   
    7.58578k     63.6551   
    7.76247k     63.4503   
    7.94328k     63.2452   
    8.12831k     63.0399   
    8.31764k     62.8344   
    8.51138k     62.6287   
    8.70964k     62.4227   
    8.91251k     62.2165   
    9.12011k     62.0100   
    9.33254k     61.8033   
    9.54993k     61.5963   
    9.77237k     61.3890   
   10.00000k     61.1814   
   10.23293k     60.9736   
   10.47129k     60.7654   
   10.71519k     60.5569   
   10.96478k     60.3480   
   11.22018k     60.1389   
   11.48154k     59.9294   
   11.74898k     59.7195   
   12.02264k     59.5093   
   12.30269k     59.2987   
   12.58925k     59.0877   
   12.88250k     58.8763   
   13.18257k     58.6645   
   13.48963k     58.4523   
   13.80384k     58.2397   
   14.12538k     58.0267   
   14.45440k     57.8133   
   14.79108k     57.5994   
   15.13561k     57.3850   
   15.48817k     57.1702   
   15.84893k     56.9549   
   16.21810k     56.7392   
   16.59587k     56.5229   
   16.98244k     56.3062   
   17.37801k     56.0891   
   17.78279k     55.8714   
   18.19701k     55.6532   
   18.62087k     55.4345   
   19.05461k     55.2154   
   19.49845k     54.9957   
   19.95262k     54.7755   
   20.41738k     54.5548   
   20.89296k     54.3336   
   21.37962k     54.1119   
   21.87762k     53.8897   
   22.38721k     53.6670   
   22.90868k     53.4437   
   23.44229k     53.2200   
   23.98833k     52.9958   
   24.54709k     52.7710   
   25.11886k     52.5458   
   25.70396k     52.3201   
   26.30268k     52.0938   
   26.91535k     51.8671   
   27.54229k     51.6399   
   28.18383k     51.4122   
   28.84032k     51.1841   
   29.51209k     50.9554   
   30.19952k     50.7263   
   30.90295k     50.4967   
   31.62278k     50.2666   
   32.35937k     50.0361   
   33.11311k     49.8050   
   33.88442k     49.5735   
   34.67369k     49.3415   
   35.48134k     49.1091   
   36.30781k     48.8761   
   37.15352k     48.6427   
   38.01894k     48.4088   
   38.90451k     48.1743   
   39.81072k     47.9394   
   40.73803k     47.7039   
   41.68694k     47.4679   
   42.65795k     47.2313   
   43.65158k     46.9942   
   44.66836k     46.7565   
   45.70882k     46.5182   
   46.77351k     46.2793   
   47.86301k     46.0398   
   48.97788k     45.7996   
   50.11872k     45.5587   
   51.28614k     45.3172   
   52.48075k     45.0749   
   53.70318k     44.8319   
   54.95409k     44.5881   
   56.23413k     44.3436   
   57.54399k     44.0982   
   58.88437k     43.8519   
   60.25596k     43.6048   
   61.65950k     43.3568   
   63.09573k     43.1078   
   64.56542k     42.8578   
   66.06934k     42.6069   
   67.60830k     42.3549   
   69.18310k     42.1019   
   70.79458k     41.8478   
   72.44360k     41.5926   
   74.13102k     41.3363   
   75.85776k     41.0787   
   77.62471k     40.8200   
   79.43282k     40.5601   
   81.28305k     40.2990   
   83.17638k     40.0366   
   85.11380k     39.7729   
   87.09636k     39.5079   
   89.12509k     39.2416   
   91.20108k     38.9740   
   93.32543k     38.7051   
   95.49926k     38.4348   
   97.72372k     38.1632   
  100.00000k     37.8902   
  102.32930k     37.6158   
  104.71285k     37.3401   
  107.15193k     37.0630   
  109.64782k     36.7845   
  112.20185k     36.5047   
  114.81536k     36.2236   
  117.48976k     35.9411   
  120.22644k     35.6574   
  123.02688k     35.3723   
  125.89254k     35.0859   
  128.82496k     34.7983   
  131.82567k     34.5094   
  134.89629k     34.2193   
  138.03843k     33.9280   
  141.25375k     33.6355   
  144.54398k     33.3420   
  147.91084k     33.0473   
  151.35612k     32.7515   
  154.88166k     32.4547   
  158.48932k     32.1568   
  162.18101k     31.8580   
  165.95869k     31.5582   
  169.82437k     31.2575   
  173.78008k     30.9560   
  177.82794k     30.6535   
  181.97009k     30.3503   
  186.20871k     30.0462   
  190.54607k     29.7414   
  194.98446k     29.4359   
  199.52623k     29.1297   
  204.17379k     28.8227   
  208.92961k     28.5151   
  213.79621k     28.2069   
  218.77616k     27.8981   
  223.87211k     27.5886   
  229.08677k     27.2786   
  234.42288k     26.9680   
  239.88329k     26.6568   
  245.47089k     26.3450   
  251.18864k     26.0327   
  257.03958k     25.7199   
  263.02680k     25.4064   
  269.15348k     25.0925   
  275.42287k     24.7779   
  281.83829k     24.4628   
  288.40315k     24.1471   
  295.12092k     23.8308   
  301.99517k     23.5138   
  309.02954k     23.1963   
  316.22777k     22.8781   
  323.59366k     22.5592   
  331.13112k     22.2396   
  338.84416k     21.9193   
  346.73685k     21.5982   
  354.81339k     21.2764   
  363.07805k     20.9537   
  371.53523k     20.6303   
  380.18940k     20.3059   
  389.04514k     19.9807   
  398.10717k     19.6546   
  407.38028k     19.3275   
  416.86938k     18.9994   
  426.57952k     18.6703   
  436.51583k     18.3402   
  446.68359k     18.0091   
  457.08819k     17.6768   
  467.73514k     17.3435   
  478.63009k     17.0090   
  489.77882k     16.6734   
  501.18723k     16.3366   
  512.86138k     15.9986   
  524.80746k     15.6594   
  537.03180k     15.3190   
  549.54087k     14.9774   
  562.34133k     14.6346   
  575.43994k     14.2904   
  588.84366k     13.9451   
  602.55959k     13.5985   
  616.59500k     13.2506   
  630.95734k     12.9014   
  645.65423k     12.5511   
  660.69345k     12.1994   
  676.08298k     11.8465   
  691.83097k     11.4924   
  707.94578k     11.1370   
  724.43596k     10.7805   
  741.31024k     10.4227   
  758.57758k     10.0637   
  776.24712k      9.7035   
  794.32823k      9.3422   
  812.83052k      8.9798   
  831.76377k      8.6162   
  851.13804k      8.2515   
  870.96359k      7.8857   
  891.25094k      7.5189   
  912.01084k      7.1510   
  933.25430k      6.7822   
  954.99259k      6.4123   
  977.23722k      6.0415   
    1.00000x      5.6697   
    1.02329x      5.2970   
    1.04713x      4.9234   
    1.07152x      4.5490   
    1.09648x      4.1737   
    1.12202x      3.7976   
    1.14815x      3.4208   
    1.17490x      3.0432   
    1.20226x      2.6648   
    1.23027x      2.2858   
    1.25893x      1.9060   
    1.28825x      1.5257   
    1.31826x      1.1446   
    1.34896x    763.0390m  
    1.38038x    380.8599m  
    1.41254x     -1.8682m  
    1.44544x   -385.1192m  
    1.47911x   -768.8681m  
    1.51356x     -1.1531   
    1.54882x     -1.5378   
    1.58489x     -1.9229   
    1.62181x     -2.3084   
    1.65959x     -2.6942   
    1.69824x     -3.0805   
    1.73780x     -3.4670   
    1.77828x     -3.8539   
    1.81970x     -4.2411   
    1.86209x     -4.6285   
    1.90546x     -5.0162   
    1.94984x     -5.4040   
    1.99526x     -5.7921   
    2.04174x     -6.1804   
    2.08930x     -6.5688   
    2.13796x     -6.9574   
    2.18776x     -7.3460   
    2.23872x     -7.7348   
    2.29087x     -8.1236   
    2.34423x     -8.5125   
    2.39883x     -8.9014   
    2.45471x     -9.2903   
    2.51189x     -9.6792   
    2.57040x    -10.0681   
    2.63027x    -10.4569   
    2.69153x    -10.8456   
    2.75423x    -11.2343   
    2.81838x    -11.6228   
    2.88403x    -12.0112   
    2.95121x    -12.3994   
    3.01995x    -12.7874   
    3.09030x    -13.1752   
    3.16228x    -13.5628   
    3.23594x    -13.9502   
    3.31131x    -14.3372   
    3.38844x    -14.7240   
    3.46737x    -15.1104   
    3.54813x    -15.4965   
    3.63078x    -15.8822   
    3.71535x    -16.2675   
    3.80189x    -16.6524   
    3.89045x    -17.0368   
    3.98107x    -17.4207   
    4.07380x    -17.8042   
    4.16869x    -18.1870   
    4.26580x    -18.5694   
    4.36516x    -18.9511   
    4.46684x    -19.3322   
    4.57088x    -19.7126   
    4.67735x    -20.0923   
    4.78630x    -20.4714   
    4.89779x    -20.8496   
    5.01187x    -21.2271   
    5.12861x    -21.6037   
    5.24807x    -21.9795   
    5.37032x    -22.3544   
    5.49541x    -22.7283   
    5.62341x    -23.1013   
    5.75440x    -23.4733   
    5.88844x    -23.8442   
    6.02560x    -24.2140   
    6.16595x    -24.5828   
    6.30957x    -24.9503   
    6.45654x    -25.3167   
    6.60693x    -25.6818   
    6.76083x    -26.0456   
    6.91831x    -26.4081   
    7.07946x    -26.7692   
    7.24436x    -27.1289   
    7.41310x    -27.4871   
    7.58578x    -27.8439   
    7.76247x    -28.1991   
    7.94328x    -28.5528   
    8.12831x    -28.9048   
    8.31764x    -29.2551   
    8.51138x    -29.6038   
    8.70964x    -29.9507   
    8.91251x    -30.2958   
    9.12011x    -30.6391   
    9.33254x    -30.9805   
    9.54993x    -31.3201   
    9.77237x    -31.6577   
   10.00000x    -31.9933   
   10.23293x    -32.3269   
   10.47129x    -32.6585   
   10.71519x    -32.9880   
   10.96478x    -33.3154   
   11.22018x    -33.6407   
   11.48154x    -33.9638   
   11.74898x    -34.2848   
   12.02264x    -34.6036   
   12.30269x    -34.9201   
   12.58925x    -35.2344   
   12.88250x    -35.5465   
   13.18257x    -35.8563   
   13.48963x    -36.1638   
   13.80384x    -36.4690   
   14.12538x    -36.7720   
   14.45440x    -37.0726   
   14.79108x    -37.3710   
   15.13561x    -37.6671   
   15.48817x    -37.9608   
   15.84893x    -38.2523   
   16.21810x    -38.5415   
   16.59587x    -38.8285   
   16.98244x    -39.1132   
   17.37801x    -39.3957   
   17.78279x    -39.6759   
   18.19701x    -39.9540   
   18.62087x    -40.2298   
   19.05461x    -40.5036   
   19.49845x    -40.7751   
   19.95262x    -41.0446   
   20.41738x    -41.3121   
   20.89296x    -41.5774   
   21.37962x    -41.8408   
   21.87762x    -42.1022   
   22.38721x    -42.3617   
   22.90868x    -42.6192   
   23.44229x    -42.8749   
   23.98833x    -43.1288   
   24.54709x    -43.3808   
   25.11886x    -43.6312   
   25.70396x    -43.8798   
   26.30268x    -44.1267   
   26.91535x    -44.3720   
   27.54229x    -44.6157   
   28.18383x    -44.8578   
   28.84032x    -45.0985   
   29.51209x    -45.3377   
   30.19952x    -45.5754   
   30.90295x    -45.8117   
   31.62278x    -46.0467   
   32.35937x    -46.2804   
   33.11311x    -46.5129   
   33.88442x    -46.7441   
   34.67369x    -46.9741   
   35.48134x    -47.2029   
   36.30781x    -47.4306   
   37.15352x    -47.6573   
   38.01894x    -47.8829   
   38.90451x    -48.1075   
   39.81072x    -48.3311   
   40.73803x    -48.5537   
   41.68694x    -48.7755   
   42.65795x    -48.9964   
   43.65158x    -49.2164   
   44.66836x    -49.4357   
   45.70882x    -49.6541   
   46.77351x    -49.8718   
   47.86301x    -50.0887   
   48.97788x    -50.3050   
   50.11872x    -50.5206   
   51.28614x    -50.7355   
   52.48075x    -50.9498   
   53.70318x    -51.1635   
   54.95409x    -51.3766   
   56.23413x    -51.5892   
   57.54399x    -51.8013   
   58.88437x    -52.0128   
   60.25596x    -52.2238   
   61.65950x    -52.4344   
   63.09573x    -52.6445   
   64.56542x    -52.8542   
   66.06934x    -53.0635   
   67.60830x    -53.2724   
   69.18310x    -53.4809   
   70.79458x    -53.6890   
   72.44360x    -53.8968   
   74.13102x    -54.1042   
   75.85776x    -54.3113   
   77.62471x    -54.5181   
   79.43282x    -54.7246   
   81.28305x    -54.9309   
   83.17638x    -55.1368   
   85.11380x    -55.3425   
   87.09636x    -55.5479   
   89.12509x    -55.7531   
   91.20108x    -55.9581   
   93.32543x    -56.1629   
   95.49926x    -56.3674   
   97.72372x    -56.5718   
  100.00000x    -56.7759   
  102.32930x    -56.9799   
  104.71285x    -57.1837   
  107.15193x    -57.3873   
  109.64782x    -57.5908   
  112.20185x    -57.7941   
  114.81536x    -57.9973   
  117.48976x    -58.2003   
  120.22644x    -58.4032   
  123.02688x    -58.6060   
  125.89254x    -58.8086   
  128.82496x    -59.0111   
  131.82567x    -59.2136   
  134.89629x    -59.4159   
  138.03843x    -59.6181   
  141.25375x    -59.8202   
  144.54398x    -60.0222   
  147.91084x    -60.2241   
  151.35612x    -60.4259   
  154.88166x    -60.6277   
  158.48932x    -60.8294   
  162.18101x    -61.0310   
  165.95869x    -61.2325   
  169.82437x    -61.4340   
  173.78008x    -61.6354   
  177.82794x    -61.8367   
  181.97009x    -62.0380   
  186.20871x    -62.2392   
  190.54607x    -62.4403   
  194.98446x    -62.6414   
  199.52623x    -62.8425   
  204.17379x    -63.0435   
  208.92961x    -63.2445   
  213.79621x    -63.4454   
  218.77616x    -63.6463   
  223.87211x    -63.8471   
  229.08677x    -64.0479   
  234.42288x    -64.2487   
  239.88329x    -64.4494   
  245.47089x    -64.6502   
  251.18864x    -64.8508   
  257.03958x    -65.0515   
  263.02680x    -65.2521   
  269.15348x    -65.4527   
  275.42287x    -65.6532   
  281.83829x    -65.8537   
  288.40315x    -66.0543   
  295.12092x    -66.2547   
  301.99517x    -66.4552   
  309.02954x    -66.6557   
  316.22777x    -66.8561   
  323.59366x    -67.0565   
  331.13112x    -67.2569   
  338.84416x    -67.4572   
  346.73685x    -67.6576   
  354.81339x    -67.8579   
  363.07805x    -68.0582   
  371.53523x    -68.2586   
  380.18940x    -68.4588   
  389.04514x    -68.6591   
  398.10717x    -68.8594   
  407.38028x    -69.0596   
  416.86938x    -69.2599   
  426.57952x    -69.4601   
  436.51583x    -69.6603   
  446.68359x    -69.8606   
  457.08819x    -70.0608   
  467.73514x    -70.2610   
  478.63009x    -70.4611   
  489.77882x    -70.6613   
  501.18723x    -70.8615   
  512.86138x    -71.0616   
  524.80746x    -71.2618   
  537.03180x    -71.4620   
  549.54087x    -71.6621   
  562.34133x    -71.8622   
  575.43994x    -72.0624   
  588.84366x    -72.2625   
  602.55959x    -72.4626   
  616.59500x    -72.6627   
  630.95734x    -72.8628   
  645.65423x    -73.0629   
  660.69345x    -73.2630   
  676.08298x    -73.4631   
  691.83097x    -73.6632   
  707.94578x    -73.8633   
  724.43596x    -74.0634   
  741.31024x    -74.2634   
  758.57758x    -74.4635   
  776.24712x    -74.6636   
  794.32823x    -74.8636   
  812.83052x    -75.0637   
  831.76377x    -75.2638   
  851.13804x    -75.4638   
  870.96359x    -75.6639   
  891.25094x    -75.8639   
  912.01084x    -76.0640   
  933.25430x    -76.2640   
  954.99259x    -76.4641   
  977.23722x    -76.6641   
    1.00000g    -76.8642   
y
-----------------------------------------------
x

        freq    volt phase 
                   vo_ac   
    1.00000    -596.1202m  
    1.02329    -610.0046m  
    1.04713    -624.2123m  
    1.07152    -638.7509m  
    1.09648    -653.6281m  
    1.12202    -668.8517m  
    1.14815    -684.4298m  
    1.17490    -700.3706m  
    1.20226    -716.6827m  
    1.23027    -733.3745m  
    1.25893    -750.4551m  
    1.28825    -767.9334m  
    1.31826    -785.8186m  
    1.34896    -804.1203m  
    1.38038    -822.8481m  
    1.41254    -842.0121m  
    1.44544    -861.6222m  
    1.47911    -881.6888m  
    1.51356    -902.2226m  
    1.54882    -923.2345m  
    1.58489    -944.7356m  
    1.62181    -966.7372m  
    1.65959    -989.2510m  
    1.69824      -1.0123   
    1.73780      -1.0359   
    1.77828      -1.0600   
    1.81970      -1.0847   
    1.86209      -1.1099   
    1.90546      -1.1358   
    1.94984      -1.1622   
    1.99526      -1.1893   
    2.04174      -1.2170   
    2.08930      -1.2453   
    2.13796      -1.2743   
    2.18776      -1.3040   
    2.23872      -1.3344   
    2.29087      -1.3654   
    2.34423      -1.3972   
    2.39883      -1.4297   
    2.45471      -1.4630   
    2.51189      -1.4971   
    2.57040      -1.5320   
    2.63027      -1.5676   
    2.69153      -1.6041   
    2.75423      -1.6415   
    2.81838      -1.6797   
    2.88403      -1.7188   
    2.95121      -1.7588   
    3.01995      -1.7997   
    3.09030      -1.8416   
    3.16228      -1.8845   
    3.23594      -1.9284   
    3.31131      -1.9732   
    3.38844      -2.0192   
    3.46737      -2.0662   
    3.54813      -2.1142   
    3.63078      -2.1634   
    3.71535      -2.2138   
    3.80189      -2.2653   
    3.89045      -2.3180   
    3.98107      -2.3719   
    4.07380      -2.4271   
    4.16869      -2.4836   
    4.26580      -2.5414   
    4.36516      -2.6005   
    4.46684      -2.6610   
    4.57088      -2.7228   
    4.67735      -2.7862   
    4.78630      -2.8510   
    4.89779      -2.9173   
    5.01187      -2.9851   
    5.12861      -3.0545   
    5.24807      -3.1255   
    5.37032      -3.1982   
    5.49541      -3.2725   
    5.62341      -3.3485   
    5.75440      -3.4264   
    5.88844      -3.5060   
    6.02560      -3.5874   
    6.16595      -3.6708   
    6.30957      -3.7560   
    6.45654      -3.8433   
    6.60693      -3.9325   
    6.76083      -4.0238   
    6.91831      -4.1172   
    7.07946      -4.2128   
    7.24436      -4.3105   
    7.41310      -4.4106   
    7.58578      -4.5129   
    7.76247      -4.6175   
    7.94328      -4.7246   
    8.12831      -4.8342   
    8.31764      -4.9462   
    8.51138      -5.0608   
    8.70964      -5.1781   
    8.91251      -5.2980   
    9.12011      -5.4207   
    9.33254      -5.5462   
    9.54993      -5.6746   
    9.77237      -5.8058   
   10.00000      -5.9401   
   10.23293      -6.0775   
   10.47129      -6.2179   
   10.71519      -6.3616   
   10.96478      -6.5085   
   11.22018      -6.6588   
   11.48154      -6.8125   
   11.74898      -6.9696   
   12.02264      -7.1303   
   12.30269      -7.2946   
   12.58925      -7.4627   
   12.88250      -7.6345   
   13.18257      -7.8101   
   13.48963      -7.9897   
   13.80384      -8.1734   
   14.12538      -8.3611   
   14.45440      -8.5530   
   14.79108      -8.7492   
   15.13561      -8.9497   
   15.48817      -9.1547   
   15.84893      -9.3643   
   16.21810      -9.5784   
   16.59587      -9.7972   
   16.98244     -10.0209   
   17.37801     -10.2494   
   17.78279     -10.4830   
   18.19701     -10.7216   
   18.62087     -10.9653   
   19.05461     -11.2144   
   19.49845     -11.4688   
   19.95262     -11.7286   
   20.41738     -11.9940   
   20.89296     -12.2651   
   21.37962     -12.5418   
   21.87762     -12.8245   
   22.38721     -13.1130   
   22.90868     -13.4076   
   23.44229     -13.7083   
   23.98833     -14.0152   
   24.54709     -14.3284   
   25.11886     -14.6480   
   25.70396     -14.9741   
   26.30268     -15.3067   
   26.91535     -15.6461   
   27.54229     -15.9921   
   28.18383     -16.3450   
   28.84032     -16.7049   
   29.51209     -17.0717   
   30.19952     -17.4455   
   30.90295     -17.8265   
   31.62278     -18.2147   
   32.35937     -18.6102   
   33.11311     -19.0130   
   33.88442     -19.4231   
   34.67369     -19.8407   
   35.48134     -20.2658   
   36.30781     -20.6984   
   37.15352     -21.1385   
   38.01894     -21.5863   
   38.90451     -22.0416   
   39.81072     -22.5045   
   40.73803     -22.9750   
   41.68694     -23.4531   
   42.65795     -23.9388   
   43.65158     -24.4321   
   44.66836     -24.9329   
   45.70882     -25.4413   
   46.77351     -25.9571   
   47.86301     -26.4803   
   48.97788     -27.0108   
   50.11872     -27.5485   
   51.28614     -28.0934   
   52.48075     -28.6454   
   53.70318     -29.2043   
   54.95409     -29.7700   
   56.23413     -30.3424   
   57.54399     -30.9213   
   58.88437     -31.5065   
   60.25596     -32.0980   
   61.65950     -32.6954   
   63.09573     -33.2986   
   64.56542     -33.9074   
   66.06934     -34.5215   
   67.60830     -35.1407   
   69.18310     -35.7649   
   70.79458     -36.3936   
   72.44360     -37.0267   
   74.13102     -37.6638   
   75.85776     -38.3047   
   77.62471     -38.9491   
   79.43282     -39.5967   
   81.28305     -40.2471   
   83.17638     -40.9001   
   85.11380     -41.5553   
   87.09636     -42.2123   
   89.12509     -42.8709   
   91.20108     -43.5307   
   93.32543     -44.1913   
   95.49926     -44.8524   
   97.72372     -45.5137   
  100.00000     -46.1748   
  102.32930     -46.8353   
  104.71285     -47.4950   
  107.15193     -48.1534   
  109.64782     -48.8102   
  112.20185     -49.4652   
  114.81536     -50.1179   
  117.48976     -50.7680   
  120.22644     -51.4152   
  123.02688     -52.0593   
  125.89254     -52.6998   
  128.82496     -53.3365   
  131.82567     -53.9692   
  134.89629     -54.5975   
  138.03843     -55.2212   
  141.25375     -55.8400   
  144.54398     -56.4537   
  147.91084     -57.0621   
  151.35612     -57.6648   
  154.88166     -58.2619   
  158.48932     -58.8529   
  162.18101     -59.4378   
  165.95869     -60.0163   
  169.82437     -60.5884   
  173.78008     -61.1539   
  177.82794     -61.7126   
  181.97009     -62.2644   
  186.20871     -62.8092   
  190.54607     -63.3469   
  194.98446     -63.8774   
  199.52623     -64.4007   
  204.17379     -64.9167   
  208.92961     -65.4253   
  213.79621     -65.9265   
  218.77616     -66.4202   
  223.87211     -66.9064   
  229.08677     -67.3852   
  234.42288     -67.8564   
  239.88329     -68.3201   
  245.47089     -68.7764   
  251.18864     -69.2252   
  257.03958     -69.6665   
  263.02680     -70.1004   
  269.15348     -70.5269   
  275.42287     -70.9461   
  281.83829     -71.3580   
  288.40315     -71.7627   
  295.12092     -72.1601   
  301.99517     -72.5505   
  309.02954     -72.9338   
  316.22777     -73.3101   
  323.59366     -73.6796   
  331.13112     -74.0422   
  338.84416     -74.3980   
  346.73685     -74.7473   
  354.81339     -75.0899   
  363.07805     -75.4260   
  371.53523     -75.7558   
  380.18940     -76.0793   
  389.04514     -76.3965   
  398.10717     -76.7077   
  407.38028     -77.0128   
  416.86938     -77.3120   
  426.57952     -77.6054   
  436.51583     -77.8931   
  446.68359     -78.1752   
  457.08819     -78.4517   
  467.73514     -78.7228   
  478.63009     -78.9886   
  489.77882     -79.2492   
  501.18723     -79.5046   
  512.86138     -79.7550   
  524.80746     -80.0005   
  537.03180     -80.2411   
  549.54087     -80.4770   
  562.34133     -80.7083   
  575.43994     -80.9350   
  588.84366     -81.1573   
  602.55959     -81.3752   
  616.59500     -81.5889   
  630.95734     -81.7984   
  645.65423     -82.0039   
  660.69345     -82.2053   
  676.08298     -82.4029   
  691.83097     -82.5967   
  707.94578     -82.7867   
  724.43596     -82.9731   
  741.31024     -83.1560   
  758.57758     -83.3354   
  776.24712     -83.5115   
  794.32823     -83.6842   
  812.83052     -83.8537   
  831.76377     -84.0202   
  851.13804     -84.1835   
  870.96359     -84.3439   
  891.25094     -84.5014   
  912.01084     -84.6561   
  933.25430     -84.8081   
  954.99259     -84.9573   
  977.23722     -85.1040   
    1.00000k    -85.2482   
    1.02329k    -85.3899   
    1.04713k    -85.5292   
    1.07152k    -85.6663   
    1.09648k    -85.8010   
    1.12202k    -85.9336   
    1.14815k    -86.0641   
    1.17490k    -86.1926   
    1.20226k    -86.3191   
    1.23027k    -86.4436   
    1.25893k    -86.5664   
    1.28825k    -86.6873   
    1.31826k    -86.8065   
    1.34896k    -86.9240   
    1.38038k    -87.0399   
    1.41254k    -87.1543   
    1.44544k    -87.2672   
    1.47911k    -87.3787   
    1.51356k    -87.4888   
    1.54882k    -87.5976   
    1.58489k    -87.7051   
    1.62181k    -87.8114   
    1.65959k    -87.9165   
    1.69824k    -88.0206   
    1.73780k    -88.1236   
    1.77828k    -88.2256   
    1.81970k    -88.3267   
    1.86209k    -88.4269   
    1.90546k    -88.5263   
    1.94984k    -88.6249   
    1.99526k    -88.7228   
    2.04174k    -88.8200   
    2.08930k    -88.9165   
    2.13796k    -89.0125   
    2.18776k    -89.1079   
    2.23872k    -89.2029   
    2.29087k    -89.2974   
    2.34423k    -89.3915   
    2.39883k    -89.4853   
    2.45471k    -89.5788   
    2.51189k    -89.6721   
    2.57040k    -89.7651   
    2.63027k    -89.8581   
    2.69153k    -89.9509   
    2.75423k    -90.0436   
    2.81838k    -90.1364   
    2.88403k    -90.2292   
    2.95121k    -90.3221   
    3.01995k    -90.4151   
    3.09030k    -90.5083   
    3.16228k    -90.6017   
    3.23594k    -90.6954   
    3.31131k    -90.7894   
    3.38844k    -90.8838   
    3.46737k    -90.9786   
    3.54813k    -91.0738   
    3.63078k    -91.1696   
    3.71535k    -91.2659   
    3.80189k    -91.3627   
    3.89045k    -91.4603   
    3.98107k    -91.5585   
    4.07380k    -91.6574   
    4.16869k    -91.7571   
    4.26580k    -91.8576   
    4.36516k    -91.9590   
    4.46684k    -92.0613   
    4.57088k    -92.1646   
    4.67735k    -92.2688   
    4.78630k    -92.3741   
    4.89779k    -92.4805   
    5.01187k    -92.5881   
    5.12861k    -92.6968   
    5.24807k    -92.8067   
    5.37032k    -92.9180   
    5.49541k    -93.0305   
    5.62341k    -93.1444   
    5.75440k    -93.2597   
    5.88844k    -93.3765   
    6.02560k    -93.4947   
    6.16595k    -93.6145   
    6.30957k    -93.7358   
    6.45654k    -93.8588   
    6.60693k    -93.9834   
    6.76083k    -94.1097   
    6.91831k    -94.2378   
    7.07946k    -94.3676   
    7.24436k    -94.4993   
    7.41310k    -94.6328   
    7.58578k    -94.7683   
    7.76247k    -94.9056   
    7.94328k    -95.0449   
    8.12831k    -95.1862   
    8.31764k    -95.3296   
    8.51138k    -95.4750   
    8.70964k    -95.6225   
    8.91251k    -95.7721   
    9.12011k    -95.9239   
    9.33254k    -96.0778   
    9.54993k    -96.2340   
    9.77237k    -96.3924   
   10.00000k    -96.5530   
   10.23293k    -96.7159   
   10.47129k    -96.8810   
   10.71519k    -97.0485   
   10.96478k    -97.2182   
   11.22018k    -97.3903   
   11.48154k    -97.5647   
   11.74898k    -97.7414   
   12.02264k    -97.9205   
   12.30269k    -98.1019   
   12.58925k    -98.2857   
   12.88250k    -98.4717   
   13.18257k    -98.6601   
   13.48963k    -98.8508   
   13.80384k    -99.0439   
   14.12538k    -99.2392   
   14.45440k    -99.4368   
   14.79108k    -99.6367   
   15.13561k    -99.8388   
   15.48817k   -100.0431   
   15.84893k   -100.2496   
   16.21810k   -100.4584   
   16.59587k   -100.6692   
   16.98244k   -100.8822   
   17.37801k   -101.0974   
   17.78279k   -101.3145   
   18.19701k   -101.5338   
   18.62087k   -101.7550   
   19.05461k   -101.9783   
   19.49845k   -102.2035   
   19.95262k   -102.4307   
   20.41738k   -102.6597   
   20.89296k   -102.8907   
   21.37962k   -103.1236   
   21.87762k   -103.3583   
   22.38721k   -103.5949   
   22.90868k   -103.8333   
   23.44229k   -104.0735   
   23.98833k   -104.3156   
   24.54709k   -104.5595   
   25.11886k   -104.8053   
   25.70396k   -105.0528   
   26.30268k   -105.3023   
   26.91535k   -105.5536   
   27.54229k   -105.8069   
   28.18383k   -106.0621   
   28.84032k   -106.3193   
   29.51209k   -106.5785   
   30.19952k   -106.8398   
   30.90295k   -107.1033   
   31.62278k   -107.3689   
   32.35937k   -107.6368   
   33.11311k   -107.9071   
   33.88442k   -108.1797   
   34.67369k   -108.4549   
   35.48134k   -108.7327   
   36.30781k   -109.0131   
   37.15352k   -109.2962   
   38.01894k   -109.5823   
   38.90451k   -109.8713   
   39.81072k   -110.1633   
   40.73803k   -110.4585   
   41.68694k   -110.7569   
   42.65795k   -111.0587   
   43.65158k   -111.3639   
   44.66836k   -111.6727   
   45.70882k   -111.9851   
   46.77351k   -112.3011   
   47.86301k   -112.6210   
   48.97788k   -112.9447   
   50.11872k   -113.2724   
   51.28614k   -113.6040   
   52.48075k   -113.9397   
   53.70318k   -114.2795   
   54.95409k   -114.6234   
   56.23413k   -114.9715   
   57.54399k   -115.3237   
   58.88437k   -115.6802   
   60.25596k   -116.0408   
   61.65950k   -116.4056   
   63.09573k   -116.7745   
   64.56542k   -117.1475   
   66.06934k   -117.5246   
   67.60830k   -117.9056   
   69.18310k   -118.2906   
   70.79458k   -118.6793   
   72.44360k   -119.0718   
   74.13102k   -119.4679   
   75.85776k   -119.8675   
   77.62471k   -120.2704   
   79.43282k   -120.6765   
   81.28305k   -121.0857   
   83.17638k   -121.4977   
   85.11380k   -121.9124   
   87.09636k   -122.3296   
   89.12509k   -122.7491   
   91.20108k   -123.1707   
   93.32543k   -123.5942   
   95.49926k   -124.0194   
   97.72372k   -124.4461   
  100.00000k   -124.8740   
  102.32930k   -125.3029   
  104.71285k   -125.7326   
  107.15193k   -126.1628   
  109.64782k   -126.5934   
  112.20185k   -127.0241   
  114.81536k   -127.4547   
  117.48976k   -127.8850   
  120.22644k   -128.3147   
  123.02688k   -128.7437   
  125.89254k   -129.1718   
  128.82496k   -129.5989   
  131.82567k   -130.0246   
  134.89629k   -130.4490   
  138.03843k   -130.8717   
  141.25375k   -131.2928   
  144.54398k   -131.7120   
  147.91084k   -132.1294   
  151.35612k   -132.5447   
  154.88166k   -132.9580   
  158.48932k   -133.3691   
  162.18101k   -133.7781   
  165.95869k   -134.1849   
  169.82437k   -134.5895   
  173.78008k   -134.9920   
  177.82794k   -135.3923   
  181.97009k   -135.7906   
  186.20871k   -136.1869   
  190.54607k   -136.5812   
  194.98446k   -136.9738   
  199.52623k   -137.3647   
  204.17379k   -137.7539   
  208.92961k   -138.1418   
  213.79621k   -138.5284   
  218.77616k   -138.9139   
  223.87211k   -139.2984   
  229.08677k   -139.6822   
  234.42288k   -140.0655   
  239.88329k   -140.4483   
  245.47089k   -140.8311   
  251.18864k   -141.2138   
  257.03958k   -141.5968   
  263.02680k   -141.9802   
  269.15348k   -142.3643   
  275.42287k   -142.7493   
  281.83829k   -143.1352   
  288.40315k   -143.5224   
  295.12092k   -143.9110   
  301.99517k   -144.3011   
  309.02954k   -144.6930   
  316.22777k   -145.0868   
  323.59366k   -145.4826   
  331.13112k   -145.8805   
  338.84416k   -146.2807   
  346.73685k   -146.6833   
  354.81339k   -147.0883   
  363.07805k   -147.4958   
  371.53523k   -147.9058   
  380.18940k   -148.3184   
  389.04514k   -148.7337   
  398.10717k   -149.1516   
  407.38028k   -149.5720   
  416.86938k   -149.9951   
  426.57952k   -150.4207   
  436.51583k   -150.8488   
  446.68359k   -151.2792   
  457.08819k   -151.7121   
  467.73514k   -152.1471   
  478.63009k   -152.5842   
  489.77882k   -153.0234   
  501.18723k   -153.4644   
  512.86138k   -153.9072   
  524.80746k   -154.3516   
  537.03180k   -154.7974   
  549.54087k   -155.2445   
  562.34133k   -155.6926   
  575.43994k   -156.1418   
  588.84366k   -156.5917   
  602.55959k   -157.0422   
  616.59500k   -157.4932   
  630.95734k   -157.9444   
  645.65423k   -158.3957   
  660.69345k   -158.8469   
  676.08298k   -159.2979   
  691.83097k   -159.7484   
  707.94578k   -160.1984   
  724.43596k   -160.6477   
  741.31024k   -161.0961   
  758.57758k   -161.5434   
  776.24712k   -161.9897   
  794.32823k   -162.4346   
  812.83052k   -162.8782   
  831.76377k   -163.3202   
  851.13804k   -163.7606   
  870.96359k   -164.1993   
  891.25094k   -164.6363   
  912.01084k   -165.0713   
  933.25430k   -165.5044   
  954.99259k   -165.9355   
  977.23722k   -166.3645   
    1.00000x   -166.7915   
    1.02329x   -167.2162   
    1.04713x   -167.6389   
    1.07152x   -168.0594   
    1.09648x   -168.4776   
    1.12202x   -168.8937   
    1.14815x   -169.3076   
    1.17490x   -169.7194   
    1.20226x   -170.1290   
    1.23027x   -170.5365   
    1.25893x   -170.9419   
    1.28825x   -171.3453   
    1.31826x   -171.7468   
    1.34896x   -172.1463   
    1.38038x   -172.5439   
    1.41254x   -172.9398   
    1.44544x   -173.3340   
    1.47911x   -173.7265   
    1.51356x   -174.1175   
    1.54882x   -174.5071   
    1.58489x   -174.8953   
    1.62181x   -175.2822   
    1.65959x   -175.6680   
    1.69824x   -176.0528   
    1.73780x   -176.4366   
    1.77828x   -176.8197   
    1.81970x   -177.2020   
    1.86209x   -177.5838   
    1.90546x   -177.9651   
    1.94984x   -178.3461   
    1.99526x   -178.7269   
    2.04174x   -179.1077   
    2.08930x   -179.4886   
    2.13796x   -179.8697   
    2.18776x    179.7489   
    2.23872x    179.3670   
    2.29087x    178.9844   
    2.34423x    178.6010   
    2.39883x    178.2167   
    2.45471x    177.8312   
    2.51189x    177.4446   
    2.57040x    177.0566   
    2.63027x    176.6670   
    2.69153x    176.2758   
    2.75423x    175.8827   
    2.81838x    175.4877   
    2.88403x    175.0905   
    2.95121x    174.6910   
    3.01995x    174.2891   
    3.09030x    173.8845   
    3.16228x    173.4773   
    3.23594x    173.0671   
    3.31131x    172.6539   
    3.38844x    172.2375   
    3.46737x    171.8178   
    3.54813x    171.3946   
    3.63078x    170.9677   
    3.71535x    170.5371   
    3.80189x    170.1026   
    3.89045x    169.6639   
    3.98107x    169.2211   
    4.07380x    168.7740   
    4.16869x    168.3224   
    4.26580x    167.8662   
    4.36516x    167.4053   
    4.46684x    166.9396   
    4.57088x    166.4689   
    4.67735x    165.9931   
    4.78630x    165.5121   
    4.89779x    165.0259   
    5.01187x    164.5343   
    5.12861x    164.0372   
    5.24807x    163.5345   
    5.37032x    163.0262   
    5.49541x    162.5121   
    5.62341x    161.9923   
    5.75440x    161.4666   
    5.88844x    160.9351   
    6.02560x    160.3975   
    6.16595x    159.8540   
    6.30957x    159.3045   
    6.45654x    158.7489   
    6.60693x    158.1873   
    6.76083x    157.6196   
    6.91831x    157.0460   
    7.07946x    156.4663   
    7.24436x    155.8807   
    7.41310x    155.2891   
    7.58578x    154.6917   
    7.76247x    154.0884   
    7.94328x    153.4795   
    8.12831x    152.8649   
    8.31764x    152.2448   
    8.51138x    151.6194   
    8.70964x    150.9886   
    8.91251x    150.3527   
    9.12011x    149.7119   
    9.33254x    149.0663   
    9.54993x    148.4160   
    9.77237x    147.7613   
   10.00000x    147.1024   
   10.23293x    146.4396   
   10.47129x    145.7729   
   10.71519x    145.1028   
   10.96478x    144.4294   
   11.22018x    143.7529   
   11.48154x    143.0738   
   11.74898x    142.3922   
   12.02264x    141.7084   
   12.30269x    141.0228   
   12.58925x    140.3357   
   12.88250x    139.6473   
   13.18257x    138.9580   
   13.48963x    138.2681   
   13.80384x    137.5780   
   14.12538x    136.8879   
   14.45440x    136.1982   
   14.79108x    135.5092   
   15.13561x    134.8213   
   15.48817x    134.1349   
   15.84893x    133.4501   
   16.21810x    132.7674   
   16.59587x    132.0871   
   16.98244x    131.4095   
   17.37801x    130.7349   
   17.78279x    130.0637   
   18.19701x    129.3961   
   18.62087x    128.7324   
   19.05461x    128.0730   
   19.49845x    127.4180   
   19.95262x    126.7678   
   20.41738x    126.1227   
   20.89296x    125.4828   
   21.37962x    124.8485   
   21.87762x    124.2199   
   22.38721x    123.5972   
   22.90868x    122.9808   
   23.44229x    122.3707   
   23.98833x    121.7671   
   24.54709x    121.1703   
   25.11886x    120.5803   
   25.70396x    119.9973   
   26.30268x    119.4215   
   26.91535x    118.8529   
   27.54229x    118.2917   
   28.18383x    117.7380   
   28.84032x    117.1919   
   29.51209x    116.6534   
   30.19952x    116.1226   
   30.90295x    115.5995   
   31.62278x    115.0843   
   32.35937x    114.5768   
   33.11311x    114.0773   
   33.88442x    113.5856   
   34.67369x    113.1018   
   35.48134x    112.6259   
   36.30781x    112.1578   
   37.15352x    111.6976   
   38.01894x    111.2452   
   38.90451x    110.8006   
   39.81072x    110.3638   
   40.73803x    109.9347   
   41.68694x    109.5133   
   42.65795x    109.0995   
   43.65158x    108.6932   
   44.66836x    108.2944   
   45.70882x    107.9031   
   46.77351x    107.5191   
   47.86301x    107.1424   
   48.97788x    106.7728   
   50.11872x    106.4104   
   51.28614x    106.0551   
   52.48075x    105.7066   
   53.70318x    105.3651   
   54.95409x    105.0302   
   56.23413x    104.7021   
   57.54399x    104.3806   
   58.88437x    104.0655   
   60.25596x    103.7568   
   61.65950x    103.4544   
   63.09573x    103.1582   
   64.56542x    102.8681   
   66.06934x    102.5840   
   67.60830x    102.3058   
   69.18310x    102.0334   
   70.79458x    101.7667   
   72.44360x    101.5056   
   74.13102x    101.2501   
   75.85776x    100.9999   
   77.62471x    100.7550   
   79.43282x    100.5154   
   81.28305x    100.2808   
   83.17638x    100.0513   
   85.11380x     99.8267   
   87.09636x     99.6070   
   89.12509x     99.3920   
   91.20108x     99.1816   
   93.32543x     98.9759   
   95.49926x     98.7746   
   97.72372x     98.5776   
  100.00000x     98.3850   
  102.32930x     98.1966   
  104.71285x     98.0123   
  107.15193x     97.8321   
  109.64782x     97.6558   
  112.20185x     97.4834   
  114.81536x     97.3148   
  117.48976x     97.1499   
  120.22644x     96.9887   
  123.02688x     96.8310   
  125.89254x     96.6769   
  128.82496x     96.5261   
  131.82567x     96.3787   
  134.89629x     96.2346   
  138.03843x     96.0937   
  141.25375x     95.9559   
  144.54398x     95.8212   
  147.91084x     95.6895   
  151.35612x     95.5608   
  154.88166x     95.4349   
  158.48932x     95.3119   
  162.18101x     95.1916   
  165.95869x     95.0740   
  169.82437x     94.9591   
  173.78008x     94.8467   
  177.82794x     94.7368   
  181.97009x     94.6295   
  186.20871x     94.5245   
  190.54607x     94.4219   
  194.98446x     94.3216   
  199.52623x     94.2236   
  204.17379x     94.1277   
  208.92961x     94.0341   
  213.79621x     93.9425   
  218.77616x     93.8530   
  223.87211x     93.7656   
  229.08677x     93.6801   
  234.42288x     93.5965   
  239.88329x     93.5148   
  245.47089x     93.4350   
  251.18864x     93.3570   
  257.03958x     93.2807   
  263.02680x     93.2062   
  269.15348x     93.1334   
  275.42287x     93.0622   
  281.83829x     92.9926   
  288.40315x     92.9246   
  295.12092x     92.8581   
  301.99517x     92.7931   
  309.02954x     92.7297   
  316.22777x     92.6676   
  323.59366x     92.6070   
  331.13112x     92.5477   
  338.84416x     92.4898   
  346.73685x     92.4332   
  354.81339x     92.3778   
  363.07805x     92.3238   
  371.53523x     92.2709   
  380.18940x     92.2193   
  389.04514x     92.1688   
  398.10717x     92.1195   
  407.38028x     92.0713   
  416.86938x     92.0242   
  426.57952x     91.9781   
  436.51583x     91.9331   
  446.68359x     91.8892   
  457.08819x     91.8462   
  467.73514x     91.8042   
  478.63009x     91.7631   
  489.77882x     91.7230   
  501.18723x     91.6838   
  512.86138x     91.6455   
  524.80746x     91.6081   
  537.03180x     91.5715   
  549.54087x     91.5357   
  562.34133x     91.5008   
  575.43994x     91.4666   
  588.84366x     91.4333   
  602.55959x     91.4007   
  616.59500x     91.3688   
  630.95734x     91.3376   
  645.65423x     91.3072   
  660.69345x     91.2775   
  676.08298x     91.2484   
  691.83097x     91.2200   
  707.94578x     91.1922   
  724.43596x     91.1651   
  741.31024x     91.1386   
  758.57758x     91.1127   
  776.24712x     91.0873   
  794.32823x     91.0626   
  812.83052x     91.0384   
  831.76377x     91.0148   
  851.13804x     90.9917   
  870.96359x     90.9691   
  891.25094x     90.9471   
  912.01084x     90.9255   
  933.25430x     90.9044   
  954.99259x     90.8839   
  977.23722x     90.8637   
    1.00000g     90.8441   
y
-----------------------------------------------
 gain= 101.6985 
 ugf=   1.4124x
 phase=-172.9379 

          ***** job concluded
1****** HSPICE -- G-2012.06-SP1 64-BIT (Aug 27 2012) RHEL64 ******              
 ******  
 .title project: three-stage opamp

  ******  job statistics summary tnom=  25.000 temp=  27.000 *****
  
  
 ******  Machine Information  ******
 CPU:
 model name	: Intel(R) Xeon(R) Gold 6226R CPU @ 2.90GHz
 cpu MHz	: 3268.164
  
 OS:
 Linux version 3.10.0-1160.105.1.el7.x86_64 (mockbuild@kbuilder.bsys.centos.org) (gcc version 4.8.5 20150623 (Red Hat 4.8.5-44) (GCC) ) #1 SMP Thu Dec 7 15:39:45 UTC 2023


  ******  HSPICE Threads Information  ******

  Command Line Threads Count :     1
  Available CPU Count        :    64
  Actual Threads Count       :     1


  ******  Circuit Statistics  ******
  # nodes       =       6 # elements   =      19
  # resistors   =       6 # capacitors =       8 # inductors   =       0
  # mutual_inds =       0 # vccs       =       4 # vcvs        =       0
  # cccs        =       0 # ccvs       =       0 # volt_srcs   =       1
  # curr_srcs   =       0 # diodes     =       0 # bjts        =       0
  # jfets       =       0 # mosfets    =       0 # U elements  =       0
  # T elements  =       0 # W elements =       0 # B elements  =       0
  # S elements  =       0 # P elements =       0 # va device   =       0
  # vector_srcs =       0 # N elements =       0


  ******  Runtime Statistics (seconds)  ******

  analysis           time    # points   tot. iter  conv.iter
  op point           0.00           1           3
  ac analysis        0.01         901         901
  readin             0.01
  errchk             0.00
  setup              0.00
  output             0.01


           peak memory used        119.55 megabytes
           total cpu time            0.03 seconds
           total elapsed time        0.03 seconds
           job started at     12:19:59 07/23/2024
           job ended   at     12:19:59 07/23/2024


 lic: total license checkout elapse time:        0.00(s)
